file 47121536 1705793828                                        
version 3
run Multiple-UEs-0-20240120-23:12:54-148370
attr configname Multiple-UEs
attr datetime 20240120-23:12:54
attr datetimef 20240120-231254
attr experiment Multiple-UEs
attr inifile omnetpp.ini
attr iterationvars $packetLen=1000B
attr iterationvarsd packetLen=1000B
attr iterationvarsf packetLen=1000B-
attr measurement $packetLen=1000B
attr network simu5g.simulations.NR.networks.SingleCell_Standalone
attr processid 148370
attr repetition 0
attr replication #0
attr resultdir results
attr runnumber 0
attr seedset 0
itervar packetLen 1000B
config image-path ../../../images:../../../../inet4.4/images:../../../../veins_inet/images:../../../../veins-veins-5.2/images
config extends Single-UE
config output-scalar-file results/Multiple-UEs/0.sca
config output-vector-file results/Multiple-UEs/0.vec
config *.numUe 5
config *.server.numApps 5
config *.server.app[*].destAddress "\"ue[\"+string(ancestorIndex(0))+\"]\""
config *.server.app[*].localPort 3088+ancestorIndex(0)
config *.ue[*].mobility.typename LinearMobility
config *.ue[*].mobility.initFromDisplayString false
config *.ue[*].mobility.speed 16.67mps
config *.ue[0].mobility.startAngle 0deg
config *.ue[0].mobility.initialX 500m
config *.ue[0].mobility.initialY 550m
config *.ue[1].mobility.startAngle 72deg
config *.ue[1].mobility.initialX 451.6375m
config *.ue[1].mobility.initialY 512.6912m
config *.ue[2].mobility.startAngle 144deg
config *.ue[2].mobility.initialX 543.5574m
config *.ue[2].mobility.initialY 475.4489m
config *.ue[3].mobility.startAngle 216deg
config *.ue[3].mobility.initialX 464.1007m
config *.ue[3].mobility.initialY 534.8029m
config *.ue[4].mobility.startAngle 288deg
config *.ue[4].mobility.initialX 525.8898m
config *.ue[4].mobility.initialY 457.2248m
config *.gnb.mobility.initialX 500m
config *.gnb.mobility.initialY 500m
config *.numUe 1
config *.ue[*].mobility.typename LinearMobility
config *.ue[*].mobility.initialX uniform(600m,1000m)
config *.ue[*].mobility.initialY uniform(500m,500m)
config *.ue[*].mobility.initialZ 0m
config *.ue[*].mobility.speed 100mps
config *.ue[*].macCellId 0
config *.ue[*].masterId 0
config *.ue[*].nrMacCellId 1
config *.ue[*].nrMasterId 1
config *.ue[*].numApps 1
config *.server.numApps 1
config **.ue[*].mobility.initFromDisplayString false
config **.ue[*].app[*].typename UdpVideoStreamClient
config **.ue[*].app[*].serverAddress "\"server\""
config **.ue[*].app[*].localPort 9999
config **.ue[*].app[*].serverPort 3088
config **.ue[*].app[*].startTime "uniform(0s, 0.02s)"
config **.server.app[*].typename UdpVideoStreamServer
config **.server.app[*].videoSize 10MiB
config **.server.app[*].localPort 3088
config **.server.app[*].sendInterval 20ms
config **.server.app[*].packetLen 1000B
config **.mtu 10000B
config output-scalar-file-append false
config network simu5g.simulations.NR.networks.SingleCell_Standalone
config sim-time-limit 60s
config warmup-period 1s
config seed-set 0
config output-scalar-file results/Multiple-UEs/0.sca
config output-vector-file results/Multiple-UEs/0.vec
config **.routingRecorder.enabled false
config **.amcType "\"NRAmc\""
config **.targetBler 0.01
config **.blerShift 5
config *.configurator.config "xmldoc(\"./config.xml\")"
config **.mobility.constraintAreaMaxX 2500m
config **.mobility.constraintAreaMaxY 2500m
config **.mobility.constraintAreaMinX 0m
config **.mobility.constraintAreaMinY 0m
config **.mobility.constraintAreaMinZ 0m
config **.mobility.constraintAreaMaxZ 0m
config **.mobility.initFromDisplayString false

vector 0 SingleCell_Standalone.server.udp passedUpPk:vector(count) ETV
attr interpolationmode none
attr recordingmode vector(count)
attr source packetSentToUpper
attr title "packets passed up, count"
vector 1 SingleCell_Standalone.server.udp droppedPkWrongPort:vector(count) ETV
attr interpolationmode none
attr recordingmode vector(count)
attr source packetDropReasonIsNoPortFound(packetDropped)
attr title "packets dropped (wrong port), count"
vector 2 SingleCell_Standalone.server.udp droppedPkBadChecksum:vector(count) ETV
attr interpolationmode none
attr recordingmode vector(count)
attr source packetDropReasonIsIncorrectlyReceived(packetDropped)
attr title "packets dropped (checksum error), count"
vector 3 SingleCell_Standalone.upf.udp passedUpPk:vector(count) ETV
attr interpolationmode none
attr recordingmode vector(count)
attr source packetSentToUpper
attr title "packets passed up, count"
vector 4 SingleCell_Standalone.upf.udp droppedPkWrongPort:vector(count) ETV
attr interpolationmode none
attr recordingmode vector(count)
attr source packetDropReasonIsNoPortFound(packetDropped)
attr title "packets dropped (wrong port), count"
vector 5 SingleCell_Standalone.upf.udp droppedPkBadChecksum:vector(count) ETV
attr interpolationmode none
attr recordingmode vector(count)
attr source packetDropReasonIsIncorrectlyReceived(packetDropped)
attr title "packets dropped (checksum error), count"
vector 6 SingleCell_Standalone.iUpf.udp passedUpPk:vector(count) ETV
attr interpolationmode none
attr recordingmode vector(count)
attr source packetSentToUpper
attr title "packets passed up, count"
vector 7 SingleCell_Standalone.iUpf.udp droppedPkWrongPort:vector(count) ETV
attr interpolationmode none
attr recordingmode vector(count)
attr source packetDropReasonIsNoPortFound(packetDropped)
attr title "packets dropped (wrong port), count"
vector 8 SingleCell_Standalone.iUpf.udp droppedPkBadChecksum:vector(count) ETV
attr interpolationmode none
attr recordingmode vector(count)
attr source packetDropReasonIsIncorrectlyReceived(packetDropped)
attr title "packets dropped (checksum error), count"
vector 9 SingleCell_Standalone.gnb.udp passedUpPk:vector(count) ETV
attr interpolationmode none
attr recordingmode vector(count)
attr source packetSentToUpper
attr title "packets passed up, count"
vector 10 SingleCell_Standalone.gnb.udp droppedPkWrongPort:vector(count) ETV
attr interpolationmode none
attr recordingmode vector(count)
attr source packetDropReasonIsNoPortFound(packetDropped)
attr title "packets dropped (wrong port), count"
vector 11 SingleCell_Standalone.gnb.udp droppedPkBadChecksum:vector(count) ETV
attr interpolationmode none
attr recordingmode vector(count)
attr source packetDropReasonIsIncorrectlyReceived(packetDropped)
attr title "packets dropped (checksum error), count"
vector 12 SingleCell_Standalone.ue[0].udp passedUpPk:vector(count) ETV
attr interpolationmode none
attr recordingmode vector(count)
attr source packetSentToUpper
attr title "packets passed up, count"
vector 13 SingleCell_Standalone.ue[0].udp droppedPkWrongPort:vector(count) ETV
attr interpolationmode none
attr recordingmode vector(count)
attr source packetDropReasonIsNoPortFound(packetDropped)
attr title "packets dropped (wrong port), count"
vector 14 SingleCell_Standalone.ue[0].udp droppedPkBadChecksum:vector(count) ETV
attr interpolationmode none
attr recordingmode vector(count)
attr source packetDropReasonIsIncorrectlyReceived(packetDropped)
attr title "packets dropped (checksum error), count"
vector 15 SingleCell_Standalone.ue[1].udp passedUpPk:vector(count) ETV
attr interpolationmode none
attr recordingmode vector(count)
attr source packetSentToUpper
attr title "packets passed up, count"
vector 16 SingleCell_Standalone.ue[1].udp droppedPkWrongPort:vector(count) ETV
attr interpolationmode none
attr recordingmode vector(count)
attr source packetDropReasonIsNoPortFound(packetDropped)
attr title "packets dropped (wrong port), count"
vector 17 SingleCell_Standalone.ue[1].udp droppedPkBadChecksum:vector(count) ETV
attr interpolationmode none
attr recordingmode vector(count)
attr source packetDropReasonIsIncorrectlyReceived(packetDropped)
attr title "packets dropped (checksum error), count"
vector 18 SingleCell_Standalone.ue[2].udp passedUpPk:vector(count) ETV
attr interpolationmode none
attr recordingmode vector(count)
attr source packetSentToUpper
attr title "packets passed up, count"
vector 19 SingleCell_Standalone.ue[2].udp droppedPkWrongPort:vector(count) ETV
attr interpolationmode none
attr recordingmode vector(count)
attr source packetDropReasonIsNoPortFound(packetDropped)
attr title "packets dropped (wrong port), count"
vector 20 SingleCell_Standalone.ue[2].udp droppedPkBadChecksum:vector(count) ETV
attr interpolationmode none
attr recordingmode vector(count)
attr source packetDropReasonIsIncorrectlyReceived(packetDropped)
attr title "packets dropped (checksum error), count"
vector 21 SingleCell_Standalone.ue[3].udp passedUpPk:vector(count) ETV
attr interpolationmode none
attr recordingmode vector(count)
attr source packetSentToUpper
attr title "packets passed up, count"
vector 22 SingleCell_Standalone.ue[3].udp droppedPkWrongPort:vector(count) ETV
attr interpolationmode none
attr recordingmode vector(count)
attr source packetDropReasonIsNoPortFound(packetDropped)
attr title "packets dropped (wrong port), count"
vector 23 SingleCell_Standalone.ue[3].udp droppedPkBadChecksum:vector(count) ETV
attr interpolationmode none
attr recordingmode vector(count)
attr source packetDropReasonIsIncorrectlyReceived(packetDropped)
attr title "packets dropped (checksum error), count"
vector 24 SingleCell_Standalone.ue[4].udp passedUpPk:vector(count) ETV
attr interpolationmode none
attr recordingmode vector(count)
attr source packetSentToUpper
attr title "packets passed up, count"
vector 25 SingleCell_Standalone.ue[4].udp droppedPkWrongPort:vector(count) ETV
attr interpolationmode none
attr recordingmode vector(count)
attr source packetDropReasonIsNoPortFound(packetDropped)
attr title "packets dropped (wrong port), count"
vector 26 SingleCell_Standalone.ue[4].udp droppedPkBadChecksum:vector(count) ETV
attr interpolationmode none
attr recordingmode vector(count)
attr source packetDropReasonIsIncorrectlyReceived(packetDropped)
attr title "packets dropped (checksum error), count"
vector 27 SingleCell_Standalone.gnb.cellularNic.mac avgServedBlocksUl:vector ETV
attr recordingmode vector
attr source avgServedBlocksUl
attr title "Avg Served Blocks Ul"
attr unit blocks
vector 28 SingleCell_Standalone.gnb.cellularNic.mac avgServedBlocksDl:vector ETV
attr recordingmode vector
attr source avgServedBlocksDl
attr title "Avg Served Blocks Dl"
attr unit blocks
vector 29 SingleCell_Standalone.gnb.cellularNic.mac sentPacketToUpperLayer:vector(packetBytes) ETV
attr interpolationmode none
attr recordingmode vector(packetBytes)
attr source sentPacketToUpperLayer
vector 30 SingleCell_Standalone.gnb.cellularNic.rlc.um rlcPacketLossDl:vector ETV
attr recordingmode vector
attr source rlcPacketLossDl
attr title "rlc Packet Loss"
attr unit ""
vector 31 SingleCell_Standalone.gnb.cellularNic.rlc.um sentPacketToLowerLayer:vector(packetBytes) ETV
attr interpolationmode none
attr recordingmode vector(packetBytes)
attr source sentPacketToLowerLayer
vector 32 SingleCell_Standalone.gnb.cellularNic.mac receivedPacketFromUpperLayer:vector(packetBytes) ETV
attr interpolationmode none
attr recordingmode vector(packetBytes)
attr source receivedPacketFromUpperLayer
vector 33 SingleCell_Standalone.ue[4].cellularNic.nrMac sentPacketToLowerLayer:vector(packetBytes) ETV
attr interpolationmode none
attr recordingmode vector(packetBytes)
attr source sentPacketToLowerLayer
vector 34 SingleCell_Standalone.gnb.cellularNic.mac macDelayDl:vector ETV
attr recordingmode vector
attr source macDelayDl
attr title "Delay at the MAC layer UL"
attr unit s
vector 35 SingleCell_Standalone.ue[4].cellularNic.nrMac sentPacketToUpperLayer:vector(packetBytes) ETV
attr interpolationmode none
attr recordingmode vector(packetBytes)
attr source sentPacketToUpperLayer
vector 36 SingleCell_Standalone.ue[4].cellularNic.nrRlc.um receivedPacketFromLowerLayer:vector(packetBytes) ETV
attr interpolationmode none
attr recordingmode vector(packetBytes)
attr source receivedPacketFromLowerLayer
vector 37 SingleCell_Standalone.ue[4].cellularNic.nrRlc.um rlcPduThroughputDl:vector ETV
attr recordingmode vector
attr source rlcPduThroughputDl
attr title "Throughput at the rlc layer DL"
attr unit Bps
vector 38 SingleCell_Standalone.ue[4].cellularNic.nrRlc.um rlcPduDelayDl:vector ETV
attr recordingmode vector
attr source rlcPduDelayDl
attr title "Delay at the rlc layer UL"
attr unit s
vector 39 SingleCell_Standalone.ue[4].cellularNic.nrRlc.um rlcPduPacketLossDl:vector ETV
attr recordingmode vector
attr source rlcPduPacketLossDl
attr title "rlc Packet Loss"
attr unit ""
vector 40 SingleCell_Standalone.gnb.cellularNic.mac sentPacketToLowerLayer:vector(packetBytes) ETV
attr interpolationmode none
attr recordingmode vector(packetBytes)
attr source sentPacketToLowerLayer
vector 41 SingleCell_Standalone.gnb.cellularNic.mac receivedPacketFromLowerLayer:vector(packetBytes) ETV
attr interpolationmode none
attr recordingmode vector(packetBytes)
attr source receivedPacketFromLowerLayer
vector 42 SingleCell_Standalone.ue[2].cellularNic.nrMac harqErrorRate_1st_Dl:vector ETV
attr recordingmode vector
attr source harqErrorRate_1st_Dl
attr title "Harq Error Rate Dl (1st tx)"
attr unit ""
vector 43 SingleCell_Standalone.ue[2].cellularNic.nrMac harqErrorRateDl:vector ETV
attr recordingmode vector
attr source harqErrorRateDl
attr title "Harq Error Rate Dl"
attr unit ""
vector 44 SingleCell_Standalone.ue[2].cellularNic.nrMac harqTxAttemptsDl:vector ETV
attr recordingmode vector
attr source harqTxAttemptsDl
attr title "Harq Tx Attempts Dl"
attr unit ""
vector 45 SingleCell_Standalone.ue[0].cellularNic.nrPhy averageCqiDl:vector ETV
attr recordingmode vector
attr source averageCqiDl
attr title "Average Cqi reported in DL"
attr unit cqi
vector 46 SingleCell_Standalone.ue[0].cellularNic.nrChannelModel[0] distance:vector ETV
attr recordingmode vector
attr source distance
attr title "distance between UE and serving base station"
attr unit meters
vector 47 SingleCell_Standalone.ue[0].cellularNic.nrChannelModel[0] rcvdSinrDl:vector ETV
attr recordingmode vector
attr source rcvdSinrDl
attr title "SINR measured at packet reception, DL"
attr unit dB
vector 48 SingleCell_Standalone.ue[0].cellularNic.nrMac receivedPacketFromLowerLayer:vector(packetBytes) ETV
attr interpolationmode none
attr recordingmode vector(packetBytes)
attr source receivedPacketFromLowerLayer
vector 49 SingleCell_Standalone.ue[2].cellularNic.nrMac sentPacketToLowerLayer:vector(packetBytes) ETV
attr interpolationmode none
attr recordingmode vector(packetBytes)
attr source sentPacketToLowerLayer
vector 50 SingleCell_Standalone.ue[2].cellularNic.nrMac sentPacketToUpperLayer:vector(packetBytes) ETV
attr interpolationmode none
attr recordingmode vector(packetBytes)
attr source sentPacketToUpperLayer
vector 51 SingleCell_Standalone.ue[2].cellularNic.nrRlc.um receivedPacketFromLowerLayer:vector(packetBytes) ETV
attr interpolationmode none
attr recordingmode vector(packetBytes)
attr source receivedPacketFromLowerLayer
vector 52 SingleCell_Standalone.ue[2].cellularNic.nrRlc.um rlcPduThroughputDl:vector ETV
attr recordingmode vector
attr source rlcPduThroughputDl
attr title "Throughput at the rlc layer DL"
attr unit Bps
vector 53 SingleCell_Standalone.ue[2].cellularNic.nrRlc.um rlcPduDelayDl:vector ETV
attr recordingmode vector
attr source rlcPduDelayDl
attr title "Delay at the rlc layer UL"
attr unit s
vector 54 SingleCell_Standalone.ue[2].cellularNic.nrRlc.um rlcThroughputDl:vector ETV
attr recordingmode vector
attr source rlcThroughputDl
attr title "Throughput at the rlc layer DL"
attr unit Bps
vector 55 SingleCell_Standalone.ue[2].cellularNic.nrRlc.um rlcPacketLossDl:vector ETV
attr recordingmode vector
attr source rlcPacketLossDl
attr title "rlc Packet Loss"
attr unit ""
vector 56 SingleCell_Standalone.ue[2].cellularNic.nrRlc.um rlcPacketLossTotal:vector ETV
attr recordingmode vector
attr source rlcPacketLossTotal
attr title "rlc Packet Loss"
attr unit ""
vector 57 SingleCell_Standalone.ue[2].cellularNic.nrRlc.um rlcDelayDl:vector ETV
attr recordingmode vector
attr source rlcDelayDl
attr title "Delay at the rlc layer DL"
attr unit s
vector 58 SingleCell_Standalone.ue[2].cellularNic.nrRlc.um sentPacketToUpperLayer:vector(packetBytes) ETV
attr interpolationmode none
attr recordingmode vector(packetBytes)
attr source sentPacketToUpperLayer
vector 59 SingleCell_Standalone.ue[2].cellularNic.nrRlc.um rlcPduPacketLossDl:vector ETV
attr recordingmode vector
attr source rlcPduPacketLossDl
attr title "rlc Packet Loss"
attr unit ""
vector 60 SingleCell_Standalone.ue[2].cellularNic.pdcpRrc receivedPacketFromLowerLayer:vector(packetBytes) ETV
attr interpolationmode none
attr recordingmode vector(packetBytes)
attr source receivedPacketFromLowerLayer
vector 61 SingleCell_Standalone.ue[2].cellularNic.pdcpRrc sentPacketToUpperLayer:vector(packetBytes) ETV
attr interpolationmode none
attr recordingmode vector(packetBytes)
attr source sentPacketToUpperLayer
vector 62 SingleCell_Standalone.ue[2].udp packetReceived:vector(packetBytes) ETV
attr interpolationmode none
attr recordingmode vector(packetBytes)
attr source packetReceived
attr title "packets received, packetBytes"
vector 63 SingleCell_Standalone.ue[2].app[0] packetReceived:vector(packetBytes) ETV
attr interpolationmode none
attr recordingmode vector(packetBytes)
attr source packetReceived
attr title "packets received, packetBytes"
vector 64 SingleCell_Standalone.ue[2].app[0] throughput:vector ETV
attr recordingmode vector
attr source throughput(packetReceived)
attr title throughput
attr unit bps
vector 65 SingleCell_Standalone.ue[2].app[0] endToEndDelay:vector ETV
attr interpolationmode none
attr recordingmode vector
attr source dataAge(packetReceived)
attr title "end-to-end delay"
attr unit s
vector 66 SingleCell_Standalone.ue[4].cellularNic.nrRlc.um rlcThroughputDl:vector ETV
attr recordingmode vector
attr source rlcThroughputDl
attr title "Throughput at the rlc layer DL"
attr unit Bps
vector 67 SingleCell_Standalone.ue[4].cellularNic.nrRlc.um rlcPacketLossDl:vector ETV
attr recordingmode vector
attr source rlcPacketLossDl
attr title "rlc Packet Loss"
attr unit ""
vector 68 SingleCell_Standalone.ue[4].cellularNic.nrRlc.um rlcPacketLossTotal:vector ETV
attr recordingmode vector
attr source rlcPacketLossTotal
attr title "rlc Packet Loss"
attr unit ""
vector 69 SingleCell_Standalone.ue[4].cellularNic.nrRlc.um rlcDelayDl:vector ETV
attr recordingmode vector
attr source rlcDelayDl
attr title "Delay at the rlc layer DL"
attr unit s
vector 70 SingleCell_Standalone.ue[4].cellularNic.nrRlc.um sentPacketToUpperLayer:vector(packetBytes) ETV
attr interpolationmode none
attr recordingmode vector(packetBytes)
attr source sentPacketToUpperLayer
vector 71 SingleCell_Standalone.ue[4].cellularNic.pdcpRrc receivedPacketFromLowerLayer:vector(packetBytes) ETV
attr interpolationmode none
attr recordingmode vector(packetBytes)
attr source receivedPacketFromLowerLayer
vector 72 SingleCell_Standalone.ue[4].cellularNic.pdcpRrc sentPacketToUpperLayer:vector(packetBytes) ETV
attr interpolationmode none
attr recordingmode vector(packetBytes)
attr source sentPacketToUpperLayer
vector 73 SingleCell_Standalone.ue[4].udp packetReceived:vector(packetBytes) ETV
attr interpolationmode none
attr recordingmode vector(packetBytes)
attr source packetReceived
attr title "packets received, packetBytes"
vector 74 SingleCell_Standalone.ue[4].app[0] packetReceived:vector(packetBytes) ETV
attr interpolationmode none
attr recordingmode vector(packetBytes)
attr source packetReceived
attr title "packets received, packetBytes"
vector 75 SingleCell_Standalone.ue[4].app[0] throughput:vector ETV
attr recordingmode vector
attr source throughput(packetReceived)
attr title throughput
attr unit bps
vector 76 SingleCell_Standalone.ue[4].app[0] endToEndDelay:vector ETV
attr interpolationmode none
attr recordingmode vector
attr source dataAge(packetReceived)
attr title "end-to-end delay"
attr unit s
vector 77 SingleCell_Standalone.ue[4].cellularNic.nrMac harqErrorRate_1st_Dl:vector ETV
attr recordingmode vector
attr source harqErrorRate_1st_Dl
attr title "Harq Error Rate Dl (1st tx)"
attr unit ""
vector 78 SingleCell_Standalone.ue[4].cellularNic.nrMac harqErrorRateDl:vector ETV
attr recordingmode vector
attr source harqErrorRateDl
attr title "Harq Error Rate Dl"
attr unit ""
vector 79 SingleCell_Standalone.ue[4].cellularNic.nrMac harqTxAttemptsDl:vector ETV
attr recordingmode vector
attr source harqTxAttemptsDl
attr title "Harq Tx Attempts Dl"
attr unit ""
vector 80 SingleCell_Standalone.ue[1].cellularNic.nrPhy averageCqiDl:vector ETV
attr recordingmode vector
attr source averageCqiDl
attr title "Average Cqi reported in DL"
attr unit cqi
vector 81 SingleCell_Standalone.ue[1].cellularNic.nrChannelModel[0] distance:vector ETV
attr recordingmode vector
attr source distance
attr title "distance between UE and serving base station"
attr unit meters
vector 82 SingleCell_Standalone.ue[1].cellularNic.nrChannelModel[0] rcvdSinrDl:vector ETV
attr recordingmode vector
attr source rcvdSinrDl
attr title "SINR measured at packet reception, DL"
attr unit dB
vector 83 SingleCell_Standalone.ue[1].cellularNic.nrMac receivedPacketFromLowerLayer:vector(packetBytes) ETV
attr interpolationmode none
attr recordingmode vector(packetBytes)
attr source receivedPacketFromLowerLayer
vector 84 SingleCell_Standalone.server.app[0] packetSent:vector(packetBytes) ETV
attr interpolationmode none
attr recordingmode vector(packetBytes)
attr source packetSent
attr title "packets sent, packetBytes"
vector 85 SingleCell_Standalone.server.udp packetSent:vector(packetBytes) ETV
attr interpolationmode none
attr recordingmode vector(packetBytes)
attr source packetSent
attr title "packets sent, packetBytes"
vector 86 SingleCell_Standalone.server.ppp[0].queue incomingPacketLengths:vector ETV
attr interpolationmode none
attr recordingmode vector
attr source packetLength(packetPushStarted)
attr title "incoming packet lengths"
attr unit b
vector 87 SingleCell_Standalone.server.ppp[0].queue incomingDataRate:vector ETV
attr interpolationmode linear
attr recordingmode vector
attr source throughput(packetPushStarted)
attr title "incoming datarate"
attr unit bps
vector 88 SingleCell_Standalone.server.ppp[0].queue queueingTime:vector ETV
attr interpolationmode none
attr recordingmode vector
attr source queueingTime(packetPulled)
attr title "queueing times"
attr unit s
vector 89 SingleCell_Standalone.server.ppp[0].queue outgoingPacketLengths:vector ETV
attr interpolationmode none
attr recordingmode vector
attr source packetLength(packetPulled)
attr title "outgoing packet lengths"
attr unit b
vector 90 SingleCell_Standalone.server.ppp[0].queue outgoingDataRate:vector ETV
attr interpolationmode linear
attr recordingmode vector
attr source throughput(packetPulled)
attr title "outgoing datarate"
attr unit bps
vector 91 SingleCell_Standalone.server.ppp[0].ppp transmissionState:vector ETV
attr interpolationmode sample-hold
attr recordingmode vector
attr source transmissionStateChanged
attr title "tx state"
vector 92 SingleCell_Standalone.server.ppp[0].ppp txPk:vector(packetBytes) ETV
attr interpolationmode none
attr recordingmode vector(packetBytes)
attr source packetSentToLower
attr title "packets transmitted, packetBytes"
vector 93 SingleCell_Standalone.server.ppp[0].queue queueLength:vector ETV
attr autoWarmupFilter false
attr interpolationmode sample-hold
attr recordingmode vector
attr source "warmup(atomic(constant0(packetPushEnded) + count(packetPushStarted) - count(packetPulled) - count(packetRemoved) - count(packetDropped)))"
attr title "queue length"
attr unit pk
vector 94 SingleCell_Standalone.server.ppp[0].queue queueBitLength:vector ETV
attr autoWarmupFilter false
attr interpolationmode sample-hold
attr recordingmode vector
attr source "warmup(atomic(constant0(packetPushEnded) + sum(packetLength(packetPushStarted)) - sum(packetLength(packetPulled)) - sum(packetLength(packetRemoved)) - sum(packetLength(packetDropped))))"
attr title "queue bit length"
attr unit b
vector 95 SingleCell_Standalone.router.ppp[0].ppp rxPkOk:vector(packetBytes) ETV
attr interpolationmode none
attr recordingmode vector(packetBytes)
attr source rxPkOk
attr title "packets received OK, packetBytes"
vector 96 SingleCell_Standalone.router.ppp[0].ppp passedUpPk:vector(packetBytes) ETV
attr interpolationmode none
attr recordingmode vector(packetBytes)
attr source packetSentToUpper
attr title "packets passed to higher layer, packetBytes"
vector 97 SingleCell_Standalone.router.ppp[1].queue incomingPacketLengths:vector ETV
attr interpolationmode none
attr recordingmode vector
attr source packetLength(packetPushStarted)
attr title "incoming packet lengths"
attr unit b
vector 98 SingleCell_Standalone.router.ppp[1].queue incomingDataRate:vector ETV
attr interpolationmode linear
attr recordingmode vector
attr source throughput(packetPushStarted)
attr title "incoming datarate"
attr unit bps
vector 99 SingleCell_Standalone.router.ppp[1].queue queueingTime:vector ETV
attr interpolationmode none
attr recordingmode vector
attr source queueingTime(packetPulled)
attr title "queueing times"
attr unit s
vector 100 SingleCell_Standalone.router.ppp[1].queue outgoingPacketLengths:vector ETV
attr interpolationmode none
attr recordingmode vector
attr source packetLength(packetPulled)
attr title "outgoing packet lengths"
attr unit b
vector 101 SingleCell_Standalone.router.ppp[1].queue outgoingDataRate:vector ETV
attr interpolationmode linear
attr recordingmode vector
attr source throughput(packetPulled)
attr title "outgoing datarate"
attr unit bps
vector 102 SingleCell_Standalone.router.ppp[1].ppp transmissionState:vector ETV
attr interpolationmode sample-hold
attr recordingmode vector
attr source transmissionStateChanged
attr title "tx state"
vector 103 SingleCell_Standalone.router.ppp[1].ppp txPk:vector(packetBytes) ETV
attr interpolationmode none
attr recordingmode vector(packetBytes)
attr source packetSentToLower
attr title "packets transmitted, packetBytes"
vector 104 SingleCell_Standalone.router.ppp[1].queue queueLength:vector ETV
attr autoWarmupFilter false
attr interpolationmode sample-hold
attr recordingmode vector
attr source "warmup(atomic(constant0(packetPushEnded) + count(packetPushStarted) - count(packetPulled) - count(packetRemoved) - count(packetDropped)))"
attr title "queue length"
attr unit pk
vector 105 SingleCell_Standalone.router.ppp[1].queue queueBitLength:vector ETV
attr autoWarmupFilter false
attr interpolationmode sample-hold
attr recordingmode vector
attr source "warmup(atomic(constant0(packetPushEnded) + sum(packetLength(packetPushStarted)) - sum(packetLength(packetPulled)) - sum(packetLength(packetRemoved)) - sum(packetLength(packetDropped))))"
attr title "queue bit length"
attr unit b
vector 106 SingleCell_Standalone.upf.pppIf.ppp rxPkOk:vector(packetBytes) ETV
attr interpolationmode none
attr recordingmode vector(packetBytes)
attr source rxPkOk
attr title "packets received OK, packetBytes"
vector 107 SingleCell_Standalone.upf.pppIf.ppp passedUpPk:vector(packetBytes) ETV
attr interpolationmode none
attr recordingmode vector(packetBytes)
attr source packetSentToUpper
attr title "packets passed to higher layer, packetBytes"
vector 108 SingleCell_Standalone.upf.udp packetSent:vector(packetBytes) ETV
attr interpolationmode none
attr recordingmode vector(packetBytes)
attr source packetSent
attr title "packets sent, packetBytes"
vector 109 SingleCell_Standalone.upf.ppp[0].queue incomingPacketLengths:vector ETV
attr interpolationmode none
attr recordingmode vector
attr source packetLength(packetPushStarted)
attr title "incoming packet lengths"
attr unit b
vector 110 SingleCell_Standalone.upf.ppp[0].queue incomingDataRate:vector ETV
attr interpolationmode linear
attr recordingmode vector
attr source throughput(packetPushStarted)
attr title "incoming datarate"
attr unit bps
vector 111 SingleCell_Standalone.upf.ppp[0].queue queueingTime:vector ETV
attr interpolationmode none
attr recordingmode vector
attr source queueingTime(packetPulled)
attr title "queueing times"
attr unit s
vector 112 SingleCell_Standalone.upf.ppp[0].queue outgoingPacketLengths:vector ETV
attr interpolationmode none
attr recordingmode vector
attr source packetLength(packetPulled)
attr title "outgoing packet lengths"
attr unit b
vector 113 SingleCell_Standalone.upf.ppp[0].queue outgoingDataRate:vector ETV
attr interpolationmode linear
attr recordingmode vector
attr source throughput(packetPulled)
attr title "outgoing datarate"
attr unit bps
vector 114 SingleCell_Standalone.upf.ppp[0].ppp transmissionState:vector ETV
attr interpolationmode sample-hold
attr recordingmode vector
attr source transmissionStateChanged
attr title "tx state"
vector 115 SingleCell_Standalone.upf.ppp[0].ppp txPk:vector(packetBytes) ETV
attr interpolationmode none
attr recordingmode vector(packetBytes)
attr source packetSentToLower
attr title "packets transmitted, packetBytes"
vector 116 SingleCell_Standalone.upf.ppp[0].queue queueLength:vector ETV
attr autoWarmupFilter false
attr interpolationmode sample-hold
attr recordingmode vector
attr source "warmup(atomic(constant0(packetPushEnded) + count(packetPushStarted) - count(packetPulled) - count(packetRemoved) - count(packetDropped)))"
attr title "queue length"
attr unit pk
vector 117 SingleCell_Standalone.upf.ppp[0].queue queueBitLength:vector ETV
attr autoWarmupFilter false
attr interpolationmode sample-hold
attr recordingmode vector
attr source "warmup(atomic(constant0(packetPushEnded) + sum(packetLength(packetPushStarted)) - sum(packetLength(packetPulled)) - sum(packetLength(packetRemoved)) - sum(packetLength(packetDropped))))"
attr title "queue bit length"
attr unit b
vector 118 SingleCell_Standalone.iUpf.ppp[0].ppp rxPkOk:vector(packetBytes) ETV
attr interpolationmode none
attr recordingmode vector(packetBytes)
attr source rxPkOk
attr title "packets received OK, packetBytes"
vector 119 SingleCell_Standalone.iUpf.ppp[0].ppp passedUpPk:vector(packetBytes) ETV
attr interpolationmode none
attr recordingmode vector(packetBytes)
attr source packetSentToUpper
attr title "packets passed to higher layer, packetBytes"
vector 120 SingleCell_Standalone.iUpf.ppp[1].queue incomingPacketLengths:vector ETV
attr interpolationmode none
attr recordingmode vector
attr source packetLength(packetPushStarted)
attr title "incoming packet lengths"
attr unit b
vector 121 SingleCell_Standalone.iUpf.ppp[1].queue incomingDataRate:vector ETV
attr interpolationmode linear
attr recordingmode vector
attr source throughput(packetPushStarted)
attr title "incoming datarate"
attr unit bps
vector 122 SingleCell_Standalone.iUpf.ppp[1].queue queueingTime:vector ETV
attr interpolationmode none
attr recordingmode vector
attr source queueingTime(packetPulled)
attr title "queueing times"
attr unit s
vector 123 SingleCell_Standalone.iUpf.ppp[1].queue outgoingPacketLengths:vector ETV
attr interpolationmode none
attr recordingmode vector
attr source packetLength(packetPulled)
attr title "outgoing packet lengths"
attr unit b
vector 124 SingleCell_Standalone.iUpf.ppp[1].queue outgoingDataRate:vector ETV
attr interpolationmode linear
attr recordingmode vector
attr source throughput(packetPulled)
attr title "outgoing datarate"
attr unit bps
vector 125 SingleCell_Standalone.iUpf.ppp[1].ppp transmissionState:vector ETV
attr interpolationmode sample-hold
attr recordingmode vector
attr source transmissionStateChanged
attr title "tx state"
vector 126 SingleCell_Standalone.iUpf.ppp[1].ppp txPk:vector(packetBytes) ETV
attr interpolationmode none
attr recordingmode vector(packetBytes)
attr source packetSentToLower
attr title "packets transmitted, packetBytes"
vector 127 SingleCell_Standalone.iUpf.ppp[1].queue queueLength:vector ETV
attr autoWarmupFilter false
attr interpolationmode sample-hold
attr recordingmode vector
attr source "warmup(atomic(constant0(packetPushEnded) + count(packetPushStarted) - count(packetPulled) - count(packetRemoved) - count(packetDropped)))"
attr title "queue length"
attr unit pk
vector 128 SingleCell_Standalone.iUpf.ppp[1].queue queueBitLength:vector ETV
attr autoWarmupFilter false
attr interpolationmode sample-hold
attr recordingmode vector
attr source "warmup(atomic(constant0(packetPushEnded) + sum(packetLength(packetPushStarted)) - sum(packetLength(packetPulled)) - sum(packetLength(packetRemoved)) - sum(packetLength(packetDropped))))"
attr title "queue bit length"
attr unit b
vector 129 SingleCell_Standalone.gnb.pppIf.ppp rxPkOk:vector(packetBytes) ETV
attr interpolationmode none
attr recordingmode vector(packetBytes)
attr source rxPkOk
attr title "packets received OK, packetBytes"
vector 130 SingleCell_Standalone.gnb.pppIf.ppp passedUpPk:vector(packetBytes) ETV
attr interpolationmode none
attr recordingmode vector(packetBytes)
attr source packetSentToUpper
attr title "packets passed to higher layer, packetBytes"
vector 131 SingleCell_Standalone.gnb.udp packetReceived:vector(packetBytes) ETV
attr interpolationmode none
attr recordingmode vector(packetBytes)
attr source packetReceived
attr title "packets received, packetBytes"
vector 132 SingleCell_Standalone.gnb.cellularNic.pdcpRrc receivedPacketFromUpperLayer:vector(packetBytes) ETV
attr interpolationmode none
attr recordingmode vector(packetBytes)
attr source receivedPacketFromUpperLayer
vector 133 SingleCell_Standalone.gnb.cellularNic.pdcpRrc sentPacketToLowerLayer:vector(packetBytes) ETV
attr interpolationmode none
attr recordingmode vector(packetBytes)
attr source sentPacketToLowerLayer
vector 134 SingleCell_Standalone.gnb.cellularNic.rlc.um receivedPacketFromUpperLayer:vector(packetBytes) ETV
attr interpolationmode none
attr recordingmode vector(packetBytes)
attr source receivedPacketFromUpperLayer
vector 135 SingleCell_Standalone.ue[0].cellularNic.nrMac sentPacketToLowerLayer:vector(packetBytes) ETV
attr interpolationmode none
attr recordingmode vector(packetBytes)
attr source sentPacketToLowerLayer
vector 136 SingleCell_Standalone.ue[0].cellularNic.nrMac sentPacketToUpperLayer:vector(packetBytes) ETV
attr interpolationmode none
attr recordingmode vector(packetBytes)
attr source sentPacketToUpperLayer
vector 137 SingleCell_Standalone.ue[0].cellularNic.nrRlc.um receivedPacketFromLowerLayer:vector(packetBytes) ETV
attr interpolationmode none
attr recordingmode vector(packetBytes)
attr source receivedPacketFromLowerLayer
vector 138 SingleCell_Standalone.ue[0].cellularNic.nrRlc.um rlcPduThroughputDl:vector ETV
attr recordingmode vector
attr source rlcPduThroughputDl
attr title "Throughput at the rlc layer DL"
attr unit Bps
vector 139 SingleCell_Standalone.ue[0].cellularNic.nrRlc.um rlcPduDelayDl:vector ETV
attr recordingmode vector
attr source rlcPduDelayDl
attr title "Delay at the rlc layer UL"
attr unit s
vector 140 SingleCell_Standalone.ue[0].cellularNic.nrRlc.um rlcPduPacketLossDl:vector ETV
attr recordingmode vector
attr source rlcPduPacketLossDl
attr title "rlc Packet Loss"
attr unit ""
vector 141 SingleCell_Standalone.ue[3].cellularNic.nrPhy averageCqiDl:vector ETV
attr recordingmode vector
attr source averageCqiDl
attr title "Average Cqi reported in DL"
attr unit cqi
vector 142 SingleCell_Standalone.ue[3].cellularNic.nrChannelModel[0] distance:vector ETV
attr recordingmode vector
attr source distance
attr title "distance between UE and serving base station"
attr unit meters
vector 143 SingleCell_Standalone.ue[3].cellularNic.nrChannelModel[0] rcvdSinrDl:vector ETV
attr recordingmode vector
attr source rcvdSinrDl
attr title "SINR measured at packet reception, DL"
attr unit dB
vector 144 SingleCell_Standalone.ue[3].cellularNic.nrMac receivedPacketFromLowerLayer:vector(packetBytes) ETV
attr interpolationmode none
attr recordingmode vector(packetBytes)
attr source receivedPacketFromLowerLayer
vector 145 SingleCell_Standalone.ue[1].cellularNic.nrMac sentPacketToLowerLayer:vector(packetBytes) ETV
attr interpolationmode none
attr recordingmode vector(packetBytes)
attr source sentPacketToLowerLayer
vector 146 SingleCell_Standalone.ue[1].cellularNic.nrMac sentPacketToUpperLayer:vector(packetBytes) ETV
attr interpolationmode none
attr recordingmode vector(packetBytes)
attr source sentPacketToUpperLayer
vector 147 SingleCell_Standalone.ue[1].cellularNic.nrRlc.um receivedPacketFromLowerLayer:vector(packetBytes) ETV
attr interpolationmode none
attr recordingmode vector(packetBytes)
attr source receivedPacketFromLowerLayer
vector 148 SingleCell_Standalone.ue[1].cellularNic.nrRlc.um rlcPduThroughputDl:vector ETV
attr recordingmode vector
attr source rlcPduThroughputDl
attr title "Throughput at the rlc layer DL"
attr unit Bps
vector 149 SingleCell_Standalone.ue[1].cellularNic.nrRlc.um rlcPduDelayDl:vector ETV
attr recordingmode vector
attr source rlcPduDelayDl
attr title "Delay at the rlc layer UL"
attr unit s
vector 150 SingleCell_Standalone.ue[1].cellularNic.nrRlc.um rlcPduPacketLossDl:vector ETV
attr recordingmode vector
attr source rlcPduPacketLossDl
attr title "rlc Packet Loss"
attr unit ""
vector 151 SingleCell_Standalone.ue[0].cellularNic.nrChannelModel[0] measuredSinrUl:vector ETV
attr recordingmode vector
attr source measuredSinrUl
attr title "SINR measured at feedback computation, UL"
attr unit dB
vector 152 SingleCell_Standalone.ue[0].cellularNic.nrChannelModel[0] measuredSinrDl:vector ETV
attr recordingmode vector
attr source measuredSinrDl
attr title "SINR measured at feedback computation, DL"
attr unit dB
vector 153 SingleCell_Standalone.ue[1].cellularNic.nrChannelModel[0] measuredSinrUl:vector ETV
attr recordingmode vector
attr source measuredSinrUl
attr title "SINR measured at feedback computation, UL"
attr unit dB
vector 154 SingleCell_Standalone.ue[1].cellularNic.nrChannelModel[0] measuredSinrDl:vector ETV
attr recordingmode vector
attr source measuredSinrDl
attr title "SINR measured at feedback computation, DL"
attr unit dB
vector 155 SingleCell_Standalone.ue[2].cellularNic.nrChannelModel[0] measuredSinrUl:vector ETV
attr recordingmode vector
attr source measuredSinrUl
attr title "SINR measured at feedback computation, UL"
attr unit dB
vector 156 SingleCell_Standalone.ue[2].cellularNic.nrChannelModel[0] measuredSinrDl:vector ETV
attr recordingmode vector
attr source measuredSinrDl
attr title "SINR measured at feedback computation, DL"
attr unit dB
vector 157 SingleCell_Standalone.ue[3].cellularNic.nrChannelModel[0] measuredSinrUl:vector ETV
attr recordingmode vector
attr source measuredSinrUl
attr title "SINR measured at feedback computation, UL"
attr unit dB
vector 158 SingleCell_Standalone.ue[3].cellularNic.nrChannelModel[0] measuredSinrDl:vector ETV
attr recordingmode vector
attr source measuredSinrDl
attr title "SINR measured at feedback computation, DL"
attr unit dB
vector 159 SingleCell_Standalone.ue[4].cellularNic.nrChannelModel[0] measuredSinrUl:vector ETV
attr recordingmode vector
attr source measuredSinrUl
attr title "SINR measured at feedback computation, UL"
attr unit dB
vector 160 SingleCell_Standalone.ue[4].cellularNic.nrChannelModel[0] measuredSinrDl:vector ETV
attr recordingmode vector
attr source measuredSinrDl
attr title "SINR measured at feedback computation, DL"
attr unit dB
vector 161 SingleCell_Standalone.ue[0].cellularNic.nrMac harqErrorRate_1st_Dl:vector ETV
attr recordingmode vector
attr source harqErrorRate_1st_Dl
attr title "Harq Error Rate Dl (1st tx)"
attr unit ""
vector 162 SingleCell_Standalone.ue[0].cellularNic.nrMac harqErrorRateDl:vector ETV
attr recordingmode vector
attr source harqErrorRateDl
attr title "Harq Error Rate Dl"
attr unit ""
vector 163 SingleCell_Standalone.ue[0].cellularNic.nrMac harqTxAttemptsDl:vector ETV
attr recordingmode vector
attr source harqTxAttemptsDl
attr title "Harq Tx Attempts Dl"
attr unit ""
vector 164 SingleCell_Standalone.ue[0].cellularNic.nrRlc.um rlcThroughputDl:vector ETV
attr recordingmode vector
attr source rlcThroughputDl
attr title "Throughput at the rlc layer DL"
attr unit Bps
vector 165 SingleCell_Standalone.ue[0].cellularNic.nrRlc.um rlcPacketLossDl:vector ETV
attr recordingmode vector
attr source rlcPacketLossDl
attr title "rlc Packet Loss"
attr unit ""
vector 166 SingleCell_Standalone.ue[0].cellularNic.nrRlc.um rlcPacketLossTotal:vector ETV
attr recordingmode vector
attr source rlcPacketLossTotal
attr title "rlc Packet Loss"
attr unit ""
vector 167 SingleCell_Standalone.ue[0].cellularNic.nrRlc.um rlcDelayDl:vector ETV
attr recordingmode vector
attr source rlcDelayDl
attr title "Delay at the rlc layer DL"
attr unit s
vector 168 SingleCell_Standalone.ue[0].cellularNic.nrRlc.um sentPacketToUpperLayer:vector(packetBytes) ETV
attr interpolationmode none
attr recordingmode vector(packetBytes)
attr source sentPacketToUpperLayer
vector 169 SingleCell_Standalone.ue[0].cellularNic.pdcpRrc receivedPacketFromLowerLayer:vector(packetBytes) ETV
attr interpolationmode none
attr recordingmode vector(packetBytes)
attr source receivedPacketFromLowerLayer
vector 170 SingleCell_Standalone.ue[0].cellularNic.pdcpRrc sentPacketToUpperLayer:vector(packetBytes) ETV
attr interpolationmode none
attr recordingmode vector(packetBytes)
attr source sentPacketToUpperLayer
vector 171 SingleCell_Standalone.ue[0].udp packetReceived:vector(packetBytes) ETV
attr interpolationmode none
attr recordingmode vector(packetBytes)
attr source packetReceived
attr title "packets received, packetBytes"
vector 172 SingleCell_Standalone.ue[0].app[0] packetReceived:vector(packetBytes) ETV
attr interpolationmode none
attr recordingmode vector(packetBytes)
attr source packetReceived
attr title "packets received, packetBytes"
vector 173 SingleCell_Standalone.ue[0].app[0] throughput:vector ETV
attr recordingmode vector
attr source throughput(packetReceived)
attr title throughput
attr unit bps
vector 174 SingleCell_Standalone.ue[0].app[0] endToEndDelay:vector ETV
attr interpolationmode none
attr recordingmode vector
attr source dataAge(packetReceived)
attr title "end-to-end delay"
attr unit s
vector 175 SingleCell_Standalone.ue[1].cellularNic.nrRlc.um rlcThroughputDl:vector ETV
attr recordingmode vector
attr source rlcThroughputDl
attr title "Throughput at the rlc layer DL"
attr unit Bps
vector 176 SingleCell_Standalone.ue[1].cellularNic.nrRlc.um rlcPacketLossDl:vector ETV
attr recordingmode vector
attr source rlcPacketLossDl
attr title "rlc Packet Loss"
attr unit ""
vector 177 SingleCell_Standalone.ue[1].cellularNic.nrRlc.um rlcPacketLossTotal:vector ETV
attr recordingmode vector
attr source rlcPacketLossTotal
attr title "rlc Packet Loss"
attr unit ""
vector 178 SingleCell_Standalone.ue[1].cellularNic.nrRlc.um rlcDelayDl:vector ETV
attr recordingmode vector
attr source rlcDelayDl
attr title "Delay at the rlc layer DL"
attr unit s
vector 179 SingleCell_Standalone.ue[1].cellularNic.nrRlc.um sentPacketToUpperLayer:vector(packetBytes) ETV
attr interpolationmode none
attr recordingmode vector(packetBytes)
attr source sentPacketToUpperLayer
vector 180 SingleCell_Standalone.ue[1].cellularNic.pdcpRrc receivedPacketFromLowerLayer:vector(packetBytes) ETV
attr interpolationmode none
attr recordingmode vector(packetBytes)
attr source receivedPacketFromLowerLayer
vector 181 SingleCell_Standalone.ue[1].cellularNic.pdcpRrc sentPacketToUpperLayer:vector(packetBytes) ETV
attr interpolationmode none
attr recordingmode vector(packetBytes)
attr source sentPacketToUpperLayer
vector 182 SingleCell_Standalone.ue[1].udp packetReceived:vector(packetBytes) ETV
attr interpolationmode none
attr recordingmode vector(packetBytes)
attr source packetReceived
attr title "packets received, packetBytes"
vector 183 SingleCell_Standalone.ue[1].app[0] packetReceived:vector(packetBytes) ETV
attr interpolationmode none
attr recordingmode vector(packetBytes)
attr source packetReceived
attr title "packets received, packetBytes"
vector 184 SingleCell_Standalone.ue[1].app[0] throughput:vector ETV
attr recordingmode vector
attr source throughput(packetReceived)
attr title throughput
attr unit bps
vector 185 SingleCell_Standalone.ue[1].app[0] endToEndDelay:vector ETV
attr interpolationmode none
attr recordingmode vector
attr source dataAge(packetReceived)
attr title "end-to-end delay"
attr unit s
vector 186 SingleCell_Standalone.ue[1].cellularNic.nrMac harqErrorRate_1st_Dl:vector ETV
attr recordingmode vector
attr source harqErrorRate_1st_Dl
attr title "Harq Error Rate Dl (1st tx)"
attr unit ""
vector 187 SingleCell_Standalone.ue[1].cellularNic.nrMac harqErrorRateDl:vector ETV
attr recordingmode vector
attr source harqErrorRateDl
attr title "Harq Error Rate Dl"
attr unit ""
vector 188 SingleCell_Standalone.ue[1].cellularNic.nrMac harqTxAttemptsDl:vector ETV
attr recordingmode vector
attr source harqTxAttemptsDl
attr title "Harq Tx Attempts Dl"
attr unit ""
vector 189 SingleCell_Standalone.ue[3].cellularNic.nrMac sentPacketToLowerLayer:vector(packetBytes) ETV
attr interpolationmode none
attr recordingmode vector(packetBytes)
attr source sentPacketToLowerLayer
vector 190 SingleCell_Standalone.ue[3].cellularNic.nrMac sentPacketToUpperLayer:vector(packetBytes) ETV
attr interpolationmode none
attr recordingmode vector(packetBytes)
attr source sentPacketToUpperLayer
vector 191 SingleCell_Standalone.ue[3].cellularNic.nrRlc.um receivedPacketFromLowerLayer:vector(packetBytes) ETV
attr interpolationmode none
attr recordingmode vector(packetBytes)
attr source receivedPacketFromLowerLayer
vector 192 SingleCell_Standalone.ue[3].cellularNic.nrRlc.um rlcPduThroughputDl:vector ETV
attr recordingmode vector
attr source rlcPduThroughputDl
attr title "Throughput at the rlc layer DL"
attr unit Bps
vector 193 SingleCell_Standalone.ue[3].cellularNic.nrRlc.um rlcPduDelayDl:vector ETV
attr recordingmode vector
attr source rlcPduDelayDl
attr title "Delay at the rlc layer UL"
attr unit s
vector 194 SingleCell_Standalone.ue[3].cellularNic.nrRlc.um rlcPduPacketLossDl:vector ETV
attr recordingmode vector
attr source rlcPduPacketLossDl
attr title "rlc Packet Loss"
attr unit ""
vector 195 SingleCell_Standalone.ue[3].cellularNic.nrRlc.um rlcThroughputDl:vector ETV
attr recordingmode vector
attr source rlcThroughputDl
attr title "Throughput at the rlc layer DL"
attr unit Bps
vector 196 SingleCell_Standalone.ue[3].cellularNic.nrRlc.um rlcPacketLossDl:vector ETV
attr recordingmode vector
attr source rlcPacketLossDl
attr title "rlc Packet Loss"
attr unit ""
vector 197 SingleCell_Standalone.ue[3].cellularNic.nrRlc.um rlcPacketLossTotal:vector ETV
attr recordingmode vector
attr source rlcPacketLossTotal
attr title "rlc Packet Loss"
attr unit ""
vector 198 SingleCell_Standalone.ue[3].cellularNic.nrRlc.um rlcDelayDl:vector ETV
attr recordingmode vector
attr source rlcDelayDl
attr title "Delay at the rlc layer DL"
attr unit s
vector 199 SingleCell_Standalone.ue[3].cellularNic.nrRlc.um sentPacketToUpperLayer:vector(packetBytes) ETV
attr interpolationmode none
attr recordingmode vector(packetBytes)
attr source sentPacketToUpperLayer
vector 200 SingleCell_Standalone.ue[3].cellularNic.pdcpRrc receivedPacketFromLowerLayer:vector(packetBytes) ETV
attr interpolationmode none
attr recordingmode vector(packetBytes)
attr source receivedPacketFromLowerLayer
vector 201 SingleCell_Standalone.ue[3].cellularNic.pdcpRrc sentPacketToUpperLayer:vector(packetBytes) ETV
attr interpolationmode none
attr recordingmode vector(packetBytes)
attr source sentPacketToUpperLayer
vector 202 SingleCell_Standalone.ue[3].udp packetReceived:vector(packetBytes) ETV
attr interpolationmode none
attr recordingmode vector(packetBytes)
attr source packetReceived
attr title "packets received, packetBytes"
vector 203 SingleCell_Standalone.ue[3].app[0] packetReceived:vector(packetBytes) ETV
attr interpolationmode none
attr recordingmode vector(packetBytes)
attr source packetReceived
attr title "packets received, packetBytes"
vector 204 SingleCell_Standalone.ue[3].app[0] throughput:vector ETV
attr recordingmode vector
attr source throughput(packetReceived)
attr title throughput
attr unit bps
vector 205 SingleCell_Standalone.ue[3].app[0] endToEndDelay:vector ETV
attr interpolationmode none
attr recordingmode vector
attr source dataAge(packetReceived)
attr title "end-to-end delay"
attr unit s
vector 206 SingleCell_Standalone.ue[3].cellularNic.nrMac harqErrorRate_1st_Dl:vector ETV
attr recordingmode vector
attr source harqErrorRate_1st_Dl
attr title "Harq Error Rate Dl (1st tx)"
attr unit ""
vector 207 SingleCell_Standalone.ue[3].cellularNic.nrMac harqErrorRateDl:vector ETV
attr recordingmode vector
attr source harqErrorRateDl
attr title "Harq Error Rate Dl"
attr unit ""
vector 208 SingleCell_Standalone.ue[3].cellularNic.nrMac harqTxAttemptsDl:vector ETV
attr recordingmode vector
attr source harqTxAttemptsDl
attr title "Harq Tx Attempts Dl"
attr unit ""
vector 209 SingleCell_Standalone.ue[2].cellularNic.nrPhy averageCqiDl:vector ETV
attr recordingmode vector
attr source averageCqiDl
attr title "Average Cqi reported in DL"
attr unit cqi
vector 210 SingleCell_Standalone.ue[2].cellularNic.nrChannelModel[0] distance:vector ETV
attr recordingmode vector
attr source distance
attr title "distance between UE and serving base station"
attr unit meters
vector 211 SingleCell_Standalone.ue[2].cellularNic.nrChannelModel[0] rcvdSinrDl:vector ETV
attr recordingmode vector
attr source rcvdSinrDl
attr title "SINR measured at packet reception, DL"
attr unit dB
vector 212 SingleCell_Standalone.ue[2].cellularNic.nrMac receivedPacketFromLowerLayer:vector(packetBytes) ETV
attr interpolationmode none
attr recordingmode vector(packetBytes)
attr source receivedPacketFromLowerLayer
vector 213 SingleCell_Standalone.ue[4].cellularNic.nrPhy averageCqiDl:vector ETV
attr recordingmode vector
attr source averageCqiDl
attr title "Average Cqi reported in DL"
attr unit cqi
vector 214 SingleCell_Standalone.ue[4].cellularNic.nrChannelModel[0] distance:vector ETV
attr recordingmode vector
attr source distance
attr title "distance between UE and serving base station"
attr unit meters
vector 215 SingleCell_Standalone.ue[4].cellularNic.nrChannelModel[0] rcvdSinrDl:vector ETV
attr recordingmode vector
attr source rcvdSinrDl
attr title "SINR measured at packet reception, DL"
attr unit dB
vector 216 SingleCell_Standalone.ue[4].cellularNic.nrMac receivedPacketFromLowerLayer:vector(packetBytes) ETV
attr interpolationmode none
attr recordingmode vector(packetBytes)
attr source receivedPacketFromLowerLayer
vector 217 SingleCell_Standalone.ue[4].cellularNic.nrMac harqErrorRate_2nd_Dl:vector ETV
attr recordingmode vector
attr source harqErrorRate_2nd_Dl
attr title "Harq Error Rate Dl (2nd tx)"
attr unit ""
vector 218 SingleCell_Standalone.ue[3].cellularNic.nrMac harqErrorRate_2nd_Dl:vector ETV
attr recordingmode vector
attr source harqErrorRate_2nd_Dl
attr title "Harq Error Rate Dl (2nd tx)"
attr unit ""
vector 219 SingleCell_Standalone.ue[0].cellularNic.nrMac harqErrorRate_2nd_Dl:vector ETV
attr recordingmode vector
attr source harqErrorRate_2nd_Dl
attr title "Harq Error Rate Dl (2nd tx)"
attr unit ""
vector 220 SingleCell_Standalone.ue[1].cellularNic.nrMac harqErrorRate_2nd_Dl:vector ETV
attr recordingmode vector
attr source harqErrorRate_2nd_Dl
attr title "Harq Error Rate Dl (2nd tx)"
attr unit ""
vector 221 SingleCell_Standalone.ue[2].cellularNic.nrMac harqErrorRate_2nd_Dl:vector ETV
attr recordingmode vector
attr source harqErrorRate_2nd_Dl
attr title "Harq Error Rate Dl (2nd tx)"
attr unit ""
0	51182 8 0 0 1 1 1 0 0 0 0
1	51190 8 0 0 1 1 1 0 0 0 0
2	51198 8 0 0 1 1 1 0 0 0 0
3	51206 8 0 0 1 1 1 0 0 0 0
4	51214 8 0 0 1 1 1 0 0 0 0
5	51222 8 0 0 1 1 1 0 0 0 0
6	51230 8 0 0 1 1 1 0 0 0 0
7	51238 8 0 0 1 1 1 0 0 0 0
8	51246 8 0 0 1 1 1 0 0 0 0
9	51254 119742 0 558480 1 18.6740039424 4418 0 4417 9757153 28734815585
10	170996 9 0 0 1 1 1 0 0 0 0
11	171005 9 0 0 1 1 1 0 0 0 0
12	171014 17897 0 558251 1 18.664 885 0 884 391170 230659910
13	188911 9 0 0 1 1 1 0 0 0 0
14	188920 9 0 0 1 1 1 0 0 0 0
15	188929 17897 0 558280 1 18.665 885 0 884 391170 230659910
16	206826 9 0 0 1 1 1 0 0 0 0
17	206835 9 0 0 1 1 1 0 0 0 0
18	206844 17345 0 558106 1 18.66 885 0 884 391170 230659910
19	224189 9 0 0 1 1 1 0 0 0 0
20	224198 9 0 0 1 1 1 0 0 0 0
21	224207 17898 0 558335 1 18.667 885 0 884 391170 230659910
22	242105 9 0 0 1 1 1 0 0 0 0
23	242114 9 0 0 1 1 1 0 0 0 0
24	242123 17898 0 558148 1 18.661 885 0 884 391170 230659910
25	260021 9 0 0 1 1 1 0 0 0 0
26	260030 9 0 0 1 1 1 0 0 0 0
27	260039 322521 30032 558487 1 18.675 17676 0 0 0 0
28	582560 322521 30032 558487 1 18.675 17676 0 6 35564 192034
29	905081 160635 30032 558487 1 18.675 8838 1 1 8838 8838
30	1065716 160635 30034 558489 1 18.675 8838 0 0 0 0
31	1226351 178309 30034 558489 1 18.675 8838 44 868 4563798 3228701930
32	1404660 303568 30036 558491 1 18.675 13255 44 1031 9117725 7923800667
33	1708228 31663 30046 558141 1 18.661 1784 1 1 1784 1784
34	1739891 195982 30046 558328 1 18.667 8841 0.004 0.015 35.648000000002 0.145514
35	1935873 34904 30046 558141 1 18.661 1768 165 868 913172 581568804
36	1970777 34904 30049 558144 1 18.661 1768 165 868 913172 581568804
37	2005681 31371 30049 558144 1 18.661 1768 0 0 -nan -nan
38	2037052 38425 30049 558144 1 18.661 1768 0.004 0.015 7.1729999999997 0.029756999999999
39	2075477 31368 30049 558144 1 18.661 1768 0 0 0 0
40	2106845 179272 30050 558502 1 18.675 8884 46 870 4611243 3269203327
41	2286117 429205 30053 558457 1 18.674 23618 1 1 23618 23618
42	2715322 31360 30053 558153 1 18.661 1768 0 1 3 3
43	2746682 31417 30053 558153 1 18.661 1771 0 1 3 3
44	2778099 31362 30053 558153 1 18.661 1768 1 2 1771 1777
45	2809461 33485 30054 558156 1 18.661 1786 14 15 26658 398022
46	2842946 56519 30054 558156 1 18.661 1786 63.896485669712 351.2978751511 368731.26204707 88595976.352115
47	2899465 56501 30054 558156 1 18.661 1786 22.144047204507 79.535564302004 87332.943680875 4460665.6890962
48	2955966 35271 30055 558157 1 18.661 1786 167 870 929697 701529195
49	2991237 31940 30070 558099 1.001 18.66 1770 1 1 1770 1770
50	3023177 35418 30070 558099 1.001 18.66 1767 165 868 912304 688952620
51	3058595 35418 30073 558102 1.001 18.66 1767 165 868 912304 688952620
52	3094013 31884 30073 558102 1.001 18.66 1767 0 0 0 0
53	3125897 38949 30073 558102 1.001 18.66 1767 0.004 0.01 7.0859999999997 0.028523999999999
54	3164846 27608 30073 558102 1.001 18.66 884 54363.363533409 51450000 115798522.43303 2.6622583263338e+15
55	3192454 15676 30073 558102 1.001 18.66 884 0 0 0 0
56	3208130 15676 30073 558102 1.001 18.66 884 0 0 0 0
57	3223806 25400 30073 558102 1.001 18.66 884 0.0059960576 0.0119960576 5.7475149184 0.037659668254785
58	3249206 18328 30073 558102 1.001 18.66 884 1029 1029 909636 936015444
59	3267534 31886 30073 558102 1.001 18.66 1767 0 0 0 0
60	3299420 18328 30074 558103 1.001 18.66 884 1029 1029 909636 936015444
61	3317748 18328 30074 558103 1.001 18.66 884 1028 1028 908752 934197056
62	3336076 18328 30077 558106 1.001 18.66 884 1008 1008 891072 898200576
63	3354404 18328 30078 558107 1.001 18.66 884 1000 1000 884000 884000000
64	3372732 3874 30078 556346 0.1 18.6 186 0 400000 70400000 28160000000000
65	3376606 25400 30078 558107 1.001 18.66 884 0.0059996272 0.0119996272 5.7506704447999 0.037700712177258
66	3402006 28475 30085 558144 1.001 18.661 884 54360.285374554 51450000 115593675.53345 2.661478510872e+15
67	3430481 16229 30085 558144 1.001 18.661 884 0 0 0 0
68	3446710 16229 30085 558144 1.001 18.661 884 0 0 0 0
69	3462939 25953 30085 558144 1.001 18.661 884 0.0059960576 0.0159960576 5.3945149184 0.033483451589186
70	3488892 18881 30085 558144 1.001 18.661 884 1029 1029 909636 936015444
71	3507773 18881 30086 558145 1.001 18.661 884 1029 1029 909636 936015444
72	3526654 18881 30086 558145 1.001 18.661 884 1028 1028 908752 934197056
73	3545535 18881 30089 558148 1.001 18.661 884 1008 1008 891072 898200576
74	3564416 18881 30090 558149 1.001 18.661 884 1000 1000 884000 884000000
75	3583297 3874 30090 556358 0.1 18.6 186 0 400000 70400000 28160000000000
76	3587171 25953 30090 558149 1.001 18.661 884 0.0059996272 0.0159996272 5.3976704447999 0.033521975374058
77	3613124 32458 30095 558217 1.001 18.662 1768 0 1 16 16
78	3645582 32761 30095 558217 1.001 18.662 1784 0 1 16 16
79	3678343 32458 30095 558217 1.001 18.662 1768 1 2 1784 1816
80	3710801 34266 30096 558218 1.001 18.662 1770 14 15 26468 395872
81	3745067 57092 30096 558218 1.001 18.662 1770 7.9202289434045 261.52997006854 210448.152064 36091675.350308
82	3802159 57076 30096 558218 1.001 18.662 1770 34.52797176451 106.5532447165 111759.38353692 7504494.556578
83	3859235 36036 30097 558219 1.001 18.662 1770 167 870 917729 592815021
84	3895271 125287 30098 558504 1.0010003728 18.6750003728 4418 1000 1000 4418000 4418000000
85	4020558 125287 30099 558505 1.0010003728 18.6750003728 4418 1008 1008 4453344 4488970752
86	4145845 125287 30101 558507 1.0010003728 18.6750003728 4418 8224 8224 36333632 298807789568
87	4271132 4050 30101 556369 0.1 18.6 186 0 2056000 361856000 7.43975936e+14
88	4275182 112033 30101 558507 1.0010003728 18.6750003728 4418 0 0 0 0
89	4387215 125287 30101 558507 1.0010003728 18.6750003728 4418 8224 8224 36333632 298807789568
90	4512502 4050 30101 556369 0.1 18.6 186 0 2056000 361856000 7.43975936e+14
91	4516552 224066 30101 558508 1.0010003728 18.6750012008 8836 0 1 4418 4418
92	4740618 125287 30101 558507 1.0010003728 18.6750003728 4418 1035 1035 4572630 4732672050
93	4865905 112033 30101 558507 1.0010003728 18.6750003728 4418 0 0 0 0
94	4977938 112033 30101 558507 1.0010003728 18.6750003728 4418 0 0 0 0
95	5089971 125287 30103 558509 1.0010012508 18.6750012508 4418 1035 1035 4572630 4732672050
96	5215258 125287 30103 558509 1.0010012508 18.6750012508 4418 1028 1028 4541704 4668871712
97	5340545 125287 30105 558511 1.0010012508 18.6750012508 4418 8224 8224 36333632 298807789568
98	5465832 4050 30105 556373 0.1 18.6 186 0 2056000 361856000 7.43975936e+14
99	5469882 112033 30105 558511 1.0010012508 18.6750012508 4418 0 0 0 0
100	5581915 129705 30105 558511 1.0010012508 18.6750012508 4418 8224 8224 36333632 298807789568
101	5711620 4236 30105 556373 0.1 18.6 186 0 2056000 361856000 7.43975936e+14
102	5715856 232902 30105 558512 1.0010012508 18.6750020788 8836 0 1 4418 4418
103	5948758 129705 30105 558511 1.0010012508 18.6750012508 4418 1035 1035 4572630 4732672050
104	6078463 116451 30105 558511 1.0010012508 18.6750012508 4418 0 0 0 0
105	6194914 116451 30105 558511 1.0010012508 18.6750012508 4418 0 0 0 0
106	6311365 129705 30107 558513 1.0010021288 18.6750021288 4418 1035 1035 4572630 4732672050
107	6441070 129705 30107 558513 1.0010021288 18.6750021288 4418 1028 1028 4541704 4668871712
108	6570775 129705 30110 558516 1.0010021288 18.6750021288 4418 1044 1044 4612392 4815337248
109	6700480 129705 30112 558518 1.0010021288 18.6750021288 4418 8512 8512 37606016 320102408192
110	6830185 4236 30112 556380 0.1 18.6 186 0 2128000 374528000 7.96995584e+14
111	6834421 116451 30112 558518 1.0010021288 18.6750021288 4418 0 0 0 0
112	6950872 129705 30112 558518 1.0010021288 18.6750021288 4418 8512 8512 37606016 320102408192
113	7080577 4236 30112 556380 0.1 18.6 186 0 2128000 374528000 7.96995584e+14
114	7084813 232902 30112 558519 1.0010021288 18.6750029856 8836 0 1 4418 4418
115	7317715 129705 30112 558518 1.0010021288 18.6750021288 4418 1071 1071 4731678 5067627138
116	7447420 116451 30112 558518 1.0010021288 18.6750021288 4418 0 0 0 0
117	7563871 116451 30112 558518 1.0010021288 18.6750021288 4418 0 0 0 0
118	7680322 129705 30114 558520 1.0010030356 18.6750030356 4418 1071 1071 4731678 5067627138
119	7810027 129705 30114 558520 1.0010030356 18.6750030356 4418 1064 1064 4700752 5001600128
120	7939732 129705 30116 558522 1.0010030356 18.6750030356 4418 8512 8512 37606016 320102408192
121	8069437 4236 30116 556384 0.1 18.6 186 0 2128000 374528000 7.96995584e+14
122	8073673 116451 30116 558522 1.0010030356 18.6750030356 4418 0 0 0 0
123	8190124 129705 30116 558522 1.0010030356 18.6750030356 4418 8512 8512 37606016 320102408192
124	8319829 4236 30116 556384 0.1 18.6 186 0 2128000 374528000 7.96995584e+14
125	8324065 232875 30116 558522 1.0010030356 18.6750030356 8835 0 1 4418 4418
126	8556940 129675 30116 558476 1.0010030356 18.6740030356 4417 1071 1071 4730607 5066480097
127	8686615 116424 30116 558476 1.0010030356 18.6740030356 4417 0 0 0 0
128	8803039 116424 30116 558476 1.0010030356 18.6740030356 4417 0 0 0 0
129	8919463 129675 30118 558478 1.0010039424 18.6740039424 4417 1071 1071 4730607 5066480097
130	9049138 129675 30118 558478 1.0010039424 18.6740039424 4417 1064 1064 4699688 5000468032
131	9178813 129675 30120 558480 1.0010039424 18.6740039424 4417 1044 1044 4611348 4814247312
132	9308488 129675 30123 558483 1.0010039424 18.6740039424 4417 1028 1028 4540676 4667814928
133	9438163 129675 30123 558483 1.0010039424 18.6740039424 4417 1029 1029 4545093 4676900697
134	9567838 129675 30124 558484 1.0010039424 18.6740039424 4417 1029 1029 4545093 4676900697
135	9697513 34582 30168 558244 1.003 18.664 1786 1 1 1786 1786
136	9732095 37761 30168 558244 1.003 18.664 1768 165 868 913172 687120128
137	9769856 37761 30171 558247 1.003 18.664 1768 165 868 913172 687120128
138	9807617 34225 30171 558247 1.003 18.664 1768 0 0 0 0
139	9841842 41279 30171 558247 1.003 18.664 1768 0.004 0.01 7.1799999999997 0.029799999999999
140	9883121 34225 30171 558247 1.003 18.664 1768 0 0 0 0
141	9917346 36180 30182 558267 1.003 18.664 1777 14 15 26569 397331
142	9953526 59075 30182 558267 1.003 18.664 1777 15.05399677023 263.5291740539 217308.23137997 37531815.058215
143	10012601 59094 30182 558267 1.003 18.664 1777 26.509938912126 100.49987911894 112178.24055032 7507651.178315
144	10071695 37955 30183 558268 1.003 18.664 1777 46 870 921815 690977651
145	10109650 34265 30188 558273 1.004 18.665 1770 1 1 1770 1770
146	10143915 37761 30188 558273 1.004 18.665 1768 165 868 913172 588628316
147	10181676 37761 30191 558276 1.004 18.665 1768 165 868 913172 588628316
148	10219437 34225 30191 558276 1.004 18.665 1768 0 0 0 0
149	10253662 41295 30191 558276 1.004 18.665 1768 0.004 0.01 7.0839999999997 0.028455999999999
150	10294957 34224 30191 558276 1.004 18.665 1768 0 0 0 0
151	10329181 97318 30199 558448 1.004 18.674 2946 14.235431861153 48.741245983862 97889.147196734 3343419.5228907
152	10426499 97270 30199 558448 1.004 18.674 2946 28.258330725722 75.759923174394 143038.36451274 7227698.9533978
153	10523769 97301 30201 558450 1.004 18.674 2946 -3.7047036026272 93.859487963082 111760.26096062 6026041.9786974
154	10621070 97320 30201 558450 1.004 18.674 2946 34.428878819009 105.46907134908 176553.64236297 11321992.14868
155	10718390 97312 30203 558452 1.004 18.674 2946 14.856760157319 76.849496548387 112469.12085508 4975611.3642756
156	10815702 97288 30203 558452 1.004 18.674 2946 41.70987007493 102.54155341151 189460.61303517 12819305.220084
157	10912990 97337 30205 558454 1.004 18.674 2946 15.284074915299 73.81351149095 121118.92963647 5699675.2462677
158	11010327 97290 30205 558454 1.004 18.674 2946 28.63417372237 99.093122415165 188375.41252146 12725806.217285
159	11107617 97279 30207 558456 1.004 18.674 2946 10.381479533362 58.814838882771 96653.380088345 3439198.2802142
160	11204896 97275 30207 558456 1.004 18.674 2946 28.549585288728 79.217684811672 154017.02413032 8354614.8716954
161	11302171 34226 30210 558290 1.004 18.665 1768 0 1 18 18
162	11336397 34569 30210 558290 1.004 18.665 1786 0 1 18 18
163	11370966 34212 30210 558290 1.004 18.665 1768 1 2 1786 1822
164	11405178 29222 30218 558247 1.005 18.664 884 54351.05298913 10290000 73808058.597644 1.1836524757065e+14
165	11434400 17112 30218 558247 1.005 18.664 884 0 0 0 0
166	11451512 17112 30218 558247 1.005 18.664 884 0 0 0 0
167	11468624 26836 30218 558247 1.005 18.664 884 0.0059960576 0.0129960576 5.8505149184 0.039369856120385
168	11495460 19764 30218 558247 1.005 18.664 884 1029 1029 909636 936015444
169	11515224 19764 30219 558248 1.005 18.664 884 1029 1029 909636 936015444
170	11534988 19764 30219 558248 1.005 18.664 884 1028 1028 908752 934197056
171	11554752 19764 30222 558251 1.005 18.664 884 1008 1008 891072 898200576
172	11574516 19764 30223 558252 1.005 18.664 884 1000 1000 884000 884000000
173	11594280 4060 30223 556481 0.1 18.6 186 0 400000 70400000 28160000000000
174	11598340 26836 30223 558252 1.005 18.664 884 0.0059996272 0.0129996272 5.8536704447999 0.039411635380458
175	11625176 29254 30228 558276 1.005 18.665 884 54347.976224172 10290000 73667497.345611 1.1790543285995e+14
176	11654430 17112 30228 558276 1.005 18.665 884 0 0 0 0
177	11671542 17112 30228 558276 1.005 18.665 884 0 0 0 0
178	11688654 26836 30228 558276 1.005 18.665 884 0.0059960576 0.0119960576 5.3145149184 0.032016082373186
179	11715490 19764 30228 558276 1.005 18.665 884 1029 1029 909636 936015444
180	11735254 19764 30229 558277 1.005 18.665 884 1029 1029 909636 936015444
181	11755018 19764 30229 558277 1.005 18.665 884 1028 1028 908752 934197056
182	11774782 19764 30232 558280 1.005 18.665 884 1008 1008 891072 898200576
183	11794546 19764 30233 558281 1.005 18.665 884 1000 1000 884000 884000000
184	11814310 4060 30233 556491 0.1 18.6 186 0 400000 70400000 28160000000000
185	11818370 26836 30233 558281 1.005 18.665 884 0.0059996272 0.0119996272 5.3176704447999 0.032054035022058
186	11845206 34226 30242 558314 1.005 18.666 1768 0 1 2 2
187	11879432 34266 30242 558314 1.005 18.666 1770 0 1 2 2
188	11913698 34226 30242 558314 1.005 18.666 1768 1 2 1770 1774
189	11947924 34405 30251 558328 1.006 18.667 1777 1 1 1777 1777
190	11982329 37804 30251 558328 1.006 18.667 1770 44 868 913176 683239936
191	12020133 37804 30254 558331 1.006 18.667 1770 44 868 913176 683239936
192	12057937 34266 30254 558331 1.006 18.667 1770 0 0 0 0
193	12092203 41340 30254 558331 1.006 18.667 1770 0.004 0.013 7.1249999999997 0.028976999999999
194	12133543 34266 30254 558331 1.006 18.667 1770 0 0 0 0
195	12167809 29374 30273 558331 1.007 18.667 884 54341.823739175 7350000 70401627.704762 65194890906534
196	12197183 17113 30273 558331 1.007 18.667 884 0 0 0 0
197	12214296 17113 30273 558331 1.007 18.667 884 0 0 0 0
198	12231409 26837 30273 558331 1.007 18.667 884 0.0059960576 0.0139960576 5.3385149184 0.032441893137985
199	12258246 19765 30273 558331 1.007 18.667 884 1029 1029 909636 936015444
200	12278011 19765 30274 558332 1.007 18.667 884 1029 1029 909636 936015444
201	12297776 19765 30274 558332 1.007 18.667 884 1028 1028 908752 934197056
202	12317541 19765 30277 558335 1.007 18.667 884 1008 1008 891072 898200576
203	12337306 19765 30278 558336 1.007 18.667 884 1000 1000 884000 884000000
204	12357071 4060 30278 556546 0.1 18.6 186 0 400000 70400000 28160000000000
205	12361131 26837 30278 558336 1.007 18.667 884 0.0059996272 0.0139996272 5.3416704447999 0.032480017127658
206	12387968 34266 30283 558365 1.007 18.668 1770 0 1 7 7
207	12422234 34405 30283 558365 1.007 18.668 1777 0 1 7 7
208	12456639 34266 30283 558365 1.007 18.668 1770 1 2 1777 1791
209	12490905 36015 30507 557984 1.016 18.657 1769 14 15 26530 397880
210	12526920 58824 30507 557984 1.016 18.657 1769 16.042852732534 263.91036349598 216446.05651336 37277148.848262
211	12585744 58836 30507 557984 1.016 18.657 1769 35.166263718876 105.16889156094 113723.25482346 7709641.8399084
212	12644580 37784 30508 557985 1.016 18.657 1769 167 870 917578 694122704
213	12682364 36287 30528 558000 1.017 18.658 1782 14 15 26711 400399
214	12718651 59258 30528 558000 1.017 18.658 1782 55.432653870653 323.31661725544 325767.81390206 70972290.820008
215	12777909 59254 30528 558000 1.017 18.658 1782 28.736086509429 79.324601062454 91469.981043626 4887315.3510073
216	12837163 38069 30529 558001 1.017 18.658 1782 167 870 924424 589758756
217	12875232 319 206600 542806 6.907 18.148 16 0 0 0 0
218	12875551 139 231811 546485 7.753 18.273 7 0 0 0 0
219	12875690 343 253882 544638 8.49 18.21 18 0 0 0 0
220	12876033 40 308921 326846 10.332 10.931 2 0 0 0 0
221	12876073 60 379375 504390 12.686 16.866 3 0 0 0 0
vector 222 SingleCell_Standalone.ue[0].cellularNic.nrMac harqErrorRate_3rd_Dl:vector ETV
attr recordingmode vector
attr source harqErrorRate_3rd_Dl
attr title "Harq Error Rate Dl (3rd tx)"
attr unit ""
vector 223 SingleCell_Standalone.ue[1].cellularNic.nrMac harqErrorRate_3rd_Dl:vector ETV
attr recordingmode vector
attr source harqErrorRate_3rd_Dl
attr title "Harq Error Rate Dl (3rd tx)"
attr unit ""
vector 224 SingleCell_Standalone.ue[3].cellularNic.nrMac harqErrorRate_3rd_Dl:vector ETV
attr recordingmode vector
attr source harqErrorRate_3rd_Dl
attr title "Harq Error Rate Dl (3rd tx)"
attr unit ""
vector 225 SingleCell_Standalone.ue[2].cellularNic.nrMac harqErrorRate_3rd_Dl:vector ETV
attr recordingmode vector
attr source harqErrorRate_3rd_Dl
attr title "Harq Error Rate Dl (3rd tx)"
attr unit ""
vector 226 SingleCell_Standalone.ue[4].cellularNic.nrMac harqErrorRate_3rd_Dl:vector ETV
attr recordingmode vector
attr source harqErrorRate_3rd_Dl
attr title "Harq Error Rate Dl (3rd tx)"
attr unit ""
vector 227 SingleCell_Standalone.ue[3].cellularNic.nrMac harqErrorRate_4th_Dl:vector ETV
attr recordingmode vector
attr source harqErrorRate_4th_Dl
attr title "Harq Error Rate Dl (4th tx)"
attr unit ""
9	12877345 118607 558526 1077452 18.6750039424 35.5210039424 4214 4418 8631 27494243 185622134131
12	12995952 18494 558846 1077602 18.684 35.526 841 885 1725 1097505 1481812565
15	13014446 18532 558880 1077767 18.685 35.533 843 885 1727 1100958 1487774170
18	13032978 18083 558736 1077484 18.681 35.522 839 885 1723 1094056 1475864764
21	13051061 18437 558935 1075805 18.687 35.471 838 885 1722 1092333 1472896035
24	13069498 18524 558748 1077671 18.681 35.528 842 885 1726 1099231 1484791641
27	13088022 320898 558533 1077776 18.676 35.534 16859 0 0 0 0
28	13408920 320898 558533 1077776 18.676 35.534 16859 0 6 38466 201312
29	13729818 175449 558533 1077559 18.676 35.525 9230 1 1 9230 9230
30	13905267 175449 558535 1077561 18.676 35.525 9230 0 0 0 0
31	14080716 193638 558535 1077561 18.676 35.525 9230 5 868 4354829 2789929437
32	14274354 316459 558532 1077563 18.6750039424 35.525 13444 5 1031 8699463 7269247091
33	14590813 36555 558698 1077664 18.68 35.528 1958 1 1 1958 1958
34	14627368 211588 558641 1077760 18.679 35.533 9230 0.004 0.408 47.759999999997 1.001494
35	14838956 36202 558698 1077664 18.68 35.528 1754 24 868 870955 552081343
36	14875158 36202 558701 1077667 18.68 35.528 1754 24 868 870955 552081343
37	14911360 32715 558701 1077667 18.68 35.528 1753 0 0 0 0
38	14944075 39557 558701 1077667 18.68 35.528 1753 0.004 0.037 8.3419999999997 0.04915
39	14983632 32728 558701 1077667 18.68 35.528 1754 0 1 1 1
40	15016360 214633 558548 1077700 18.676 35.529 10220 7 870 4925703 3179606721
41	15230993 460499 558706 1077799 18.68 35.534 24271 1 1 24271 24271
42	15691492 31826 558716 1077529 18.68 35.523 1716 0 1 229 229
43	15723318 36377 558716 1077529 18.68 35.523 1954 0 1 238 238
44	15759695 31994 558716 1077529 18.68 35.523 1716 1 3 1954 2448
45	15791689 47156 558717 1077530 18.68 35.523 2398 11 15 33434 467212
46	15838845 78122 558717 1077530 18.68 35.523 2398 351.82928716525 632.07309164435 1177254.2491709 591284630.10995
47	15916967 78082 558717 1077530 18.68 35.523 2398 -8.5613951495536 53.511503241683 68163.933088205 2031009.2205313
48	15995049 49435 558718 1077531 18.68 35.523 2398 7 870 1007037 581772843
49	16044484 36924 558641 1077477 18.679 35.522 1954 1 1 1954 1954
50	16081408 35814 558641 1077477 18.679 35.522 1716 24 868 870879 625159463
51	16117222 35814 558644 1077480 18.679 35.522 1716 24 868 870879 625159463
52	16153036 32318 558644 1077480 18.679 35.522 1712 0 0 0 0
53	16185354 39004 558644 1077480 18.679 35.522 1712 0.004 0.118 8.9679999999997 0.088014000000001
54	16224358 27277 558732 1077480 18.681 35.522 839 52810.872424375 54356.993382727 44825916.859507 2395125857116.7
55	16251635 15757 558732 1077480 18.681 35.522 843 0 1 4 4
56	16267392 15757 558732 1077480 18.681 35.522 843 0 1 4 4
57	16283149 24910 558732 1077480 18.681 35.522 839 0.0059960576 0.1449960576 9.6226923264001 0.33643211395537
58	16308059 18198 558732 1077480 18.681 35.522 839 1029 1029 863331 888367599
59	16326257 32471 558644 1077480 18.679 35.522 1716 0 1 4 4
60	16358728 18198 558733 1077481 18.681 35.522 839 1029 1029 863331 888367599
61	16376926 18198 558733 1077481 18.681 35.522 839 1028 1028 862492 886641776
62	16395124 18198 558736 1077484 18.681 35.522 839 1008 1008 845712 852477696
63	16413322 18198 558737 1077485 18.681 35.522 839 1000 1000 839000 839000000
64	16431520 3694 559307 1076763 18.7 35.5 169 0 880000 67280000 27897600000000
65	16435214 24910 558737 1077485 18.681 35.522 839 0.0059996272 0.1449996272 9.6256872208 0.33650082297101
66	16460124 27811 558744 1077667 18.681 35.528 842 52774.892703863 54356.993382727 45034737.188642 2408840983243.3
67	16487935 16132 558744 1077667 18.681 35.528 843 0 1 1 1
68	16504067 16132 558744 1077667 18.681 35.528 843 0 1 1 1
69	16520199 25375 558744 1077667 18.681 35.528 842 0.0059960576 0.1449960576 6.7766804992 0.1146625541428
70	16545574 18639 558744 1077667 18.681 35.528 842 1029 1029 866418 891544122
71	16564213 18639 558745 1077668 18.681 35.528 842 1029 1029 866418 891544122
72	16582852 18639 558745 1077668 18.681 35.528 842 1028 1028 865576 889812128
73	16601491 18639 558748 1077671 18.681 35.528 842 1008 1008 848736 855525888
74	16620130 18639 558749 1077672 18.681 35.528 842 1000 1000 842000 842000000
75	16638769 3704 559344 1076866 18.7 35.5 169 0 880000 67520000 27392000000000
76	16642473 25375 558749 1077672 18.681 35.528 842 0.0059996272 0.1449996272 6.7796861024 0.11471094494902
77	16667848 33627 558753 1077507 18.681 35.522 1754 0 1 199 199
78	16701475 37573 558753 1077705 18.681 35.529 1958 0 1 204 204
79	16739048 33618 558753 1077705 18.681 35.529 1754 1 3 1958 2376
80	16772666 39378 558756 1077720 18.681 35.53 1953 12 15 27337 383833
81	16812044 64560 558756 1077720 18.681 35.53 1953 262.06323161545 542.94074388808 804060.90673206 343955703.60743
82	16876604 64548 558756 1077720 18.681 35.53 1953 10.361895628387 51.404970896397 68186.420545081 2489446.7641805
83	16941152 41268 558757 1077721 18.681 35.53 1953 26 870 943734 579734296
84	16982420 122822 558597 1077800 18.6780003728 35.5340003728 4214 1000 1000 4214000 4214000000
85	17105242 122822 558598 1077801 18.6780003728 35.5340003728 4214 1008 1008 4247712 4281693696
86	17228064 122822 558600 1077803 18.6780003728 35.5340003728 4214 8224 8224 34655936 285010417664
87	17350886 3878 559358 1076809 18.7 35.5 169 2056000 2056000 347464000 7.14385984e+14
88	17354764 110180 558600 1077803 18.6780003728 35.5340003728 4214 0 0 0 0
89	17464944 122822 558600 1077803 18.6780003728 35.5340003728 4214 8224 8224 34655936 285010417664
90	17587766 3878 559358 1076809 18.7 35.5 169 2056000 2056000 347464000 7.14385984e+14
91	17591644 220360 558600 1077804 18.6780003728 35.5340012008 8428 0 1 4214 4214
92	17812004 122822 558600 1077803 18.6780003728 35.5340003728 4214 1035 1035 4361490 4514142150
93	17934826 110180 558600 1077803 18.6780003728 35.5340003728 4214 0 0 0 0
94	18045006 110180 558600 1077803 18.6780003728 35.5340003728 4214 0 0 0 0
95	18155186 122822 558602 1077805 18.6780012508 35.5340012508 4214 1035 1035 4361490 4514142150
96	18278008 122822 558602 1077805 18.6780012508 35.5340012508 4214 1028 1028 4331992 4453287776
97	18400830 122822 558604 1077807 18.6780012508 35.5340012508 4214 8224 8224 34655936 285010417664
98	18523652 3878 559362 1076813 18.7 35.5 169 2056000 2056000 347464000 7.14385984e+14
99	18527530 110180 558604 1077807 18.6780012508 35.5340012508 4214 0 0 0 0
100	18637710 127036 558604 1077807 18.6780012508 35.5340012508 4214 8224 8224 34655936 285010417664
101	18764746 4047 559362 1076813 18.7 35.5 169 2056000 2056000 347464000 7.14385984e+14
102	18768793 228788 558604 1077808 18.6780012508 35.5340020788 8428 0 1 4214 4214
103	18997581 127036 558604 1077807 18.6780012508 35.5340012508 4214 1035 1035 4361490 4514142150
104	19124617 114394 558604 1077807 18.6780012508 35.5340012508 4214 0 0 0 0
105	19239011 114394 558604 1077807 18.6780012508 35.5340012508 4214 0 0 0 0
106	19353405 127036 558606 1077809 18.6780021288 35.5340021288 4214 1035 1035 4361490 4514142150
107	19480441 127036 558606 1077809 18.6780021288 35.5340021288 4214 1028 1028 4331992 4453287776
108	19607477 127036 558609 1077812 18.6780021288 35.5340021288 4214 1044 1044 4399416 4592990304
109	19734513 127036 558611 1077814 18.6780021288 35.5340021288 4214 8512 8512 35869568 305321762816
110	19861549 4047 559369 1076820 18.7 35.5 169 2128000 2128000 359632000 7.65296896e+14
111	19865596 114394 558611 1077814 18.6780021288 35.5340021288 4214 0 0 0 0
112	19979990 127036 558611 1077814 18.6780021288 35.5340021288 4214 8512 8512 35869568 305321762816
113	20107026 4047 559369 1076820 18.7 35.5 169 2128000 2128000 359632000 7.65296896e+14
114	20111073 228788 558611 1077815 18.6780021288 35.5340029856 8428 0 1 4214 4214
115	20339861 127036 558611 1077814 18.6780021288 35.5340021288 4214 1071 1071 4513194 4833630774
116	20466897 114394 558611 1077814 18.6780021288 35.5340021288 4214 0 0 0 0
117	20581291 114394 558611 1077814 18.6780021288 35.5340021288 4214 0 0 0 0
118	20695685 127036 558613 1077816 18.6780030356 35.5340030356 4214 1071 1071 4513194 4833630774
119	20822721 127036 558613 1077816 18.6780030356 35.5340030356 4214 1064 1064 4483696 4770652544
120	20949757 127005 558615 1077448 18.6780030356 35.5210030356 4213 8512 8512 35861056 305249308672
121	21076762 4047 559373 1076824 18.7 35.5 169 2128000 2128000 359632000 7.65296896e+14
122	21080809 114366 558615 1077448 18.6780030356 35.5210030356 4213 0 0 0 0
123	21195175 127005 558615 1077448 18.6780030356 35.5210030356 4213 8512 8512 35861056 305249308672
124	21322180 4047 559373 1076824 18.7 35.5 169 2128000 2128000 359632000 7.65296896e+14
125	21326227 228759 558523 1077449 18.6750038924 35.5210038924 8427 0 1 4213 4213
126	21554986 127035 558522 1077448 18.6750030356 35.5210030356 4214 1071 1071 4513194 4833630774
127	21682021 114393 558522 1077448 18.6750030356 35.5210030356 4214 0 0 0 0
128	21796414 114393 558522 1077448 18.6750030356 35.5210030356 4214 0 0 0 0
129	21910807 127035 558524 1077450 18.6750039424 35.5210039424 4214 1071 1071 4513194 4833630774
130	22037842 127035 558524 1077450 18.6750039424 35.5210039424 4214 1064 1064 4483696 4770652544
131	22164877 127035 558526 1077452 18.6750039424 35.5210039424 4214 1044 1044 4399416 4592990304
132	22291912 127035 558529 1077455 18.6750039424 35.5210039424 4214 1028 1028 4331992 4453287776
133	22418947 127035 558529 1077455 18.6750039424 35.5210039424 4214 1029 1029 4336206 4461955974
134	22545982 127035 558530 1077456 18.6750039424 35.5210039424 4214 1029 1029 4336206 4461955974
135	22673017 48220 558816 1077595 18.683 35.526 2398 1 1 2398 2398
136	22721237 46881 558816 1077595 18.683 35.526 2125 5 868 871697 500244557
137	22768118 46881 558819 1077598 18.683 35.526 2125 5 868 871697 500244557
138	22814999 42701 558819 1077598 18.683 35.526 2123 0 0 0 0
139	22857700 50966 558819 1077598 18.683 35.526 2123 0.004 0.094 10.944999999999 0.109679
140	22908666 42738 558819 1077598 18.683 35.526 2125 0 1 2 2
141	22951404 41479 558830 1077623 18.683 35.526 1958 10 15 27837 397263
142	22992883 66694 558830 1077623 18.683 35.526 1958 264.06181034871 544.69651257351 815624.30540822 353640376.80984
143	23059577 66683 558830 1077623 18.683 35.526 1957 8.8363620393142 56.277702556647 68012.110260986 2503515.0816395
144	23126260 43393 558831 1077624 18.683 35.526 1958 22 870 954723 637727905
145	23169653 39367 558849 1077760 18.684 35.533 1953 1 1 1953 1953
146	23209020 40395 558849 1077760 18.684 35.533 1826 24 868 871099 529964399
147	23249415 40395 558852 1077763 18.684 35.533 1826 24 868 871099 529964399
148	23289810 36804 558852 1077763 18.684 35.533 1826 0 0 0 0
149	23326614 44023 558852 1077763 18.684 35.533 1826 0.004 0.105 8.7159999999996 0.082858000000001
150	23370637 36780 558852 1077763 18.684 35.533 1826 0 0 0 0
151	23407417 95114 558705 1077788 18.68 35.534 2810 -7.8146448150504 32.576882505809 48460.686657461 1030025.4767919
152	23502531 95050 558705 1077788 18.68 35.534 2810 14.694192251777 52.186171529679 81811.212212063 2480269.2177965
[...]
193	41907398 48372 1202348 1711008 39.466 55.406 1944 0.004 0.091 10.852 0.12358
194	41955770 40835 1202348 1711008 39.466 55.406 1946 0 1 2 2
195	41996605 27689 1202373 1710384 39.467 55.387 795 52245.713943172 52697.89689864 41718336.199755 2189218798875.5
196	42024294 16719 1202373 1710384 39.467 55.387 797 0 1 2 2
197	42041013 16719 1202373 1710384 39.467 55.387 797 0 1 2 2
198	42057732 25422 1202373 1710384 39.467 55.387 795 0.0059960576 0.1249960576 8.904865792 0.2142457745579
199	42083154 19062 1202373 1710384 39.467 55.387 795 1029 1029 818055 841778595
200	42102216 19062 1202374 1710385 39.467 55.387 795 1029 1029 818055 841778595
201	42121278 19062 1202374 1710385 39.467 55.387 795 1028 1028 817260 840143280
202	42140340 19062 1202377 1710388 39.467 55.387 795 1008 1008 801360 807770880
203	42159402 19062 1202378 1710389 39.467 55.387 795 1000 1000 795000 795000000
204	42178464 3777 1203597 1707768 39.5 55.3 159 0 720000 63440000 26336000000000
205	42182241 25422 1202378 1710389 39.467 55.387 795 0.0059996272 0.1249996272 8.907703624 0.21430935830569
206	42207663 40760 1202383 1710432 39.467 55.388 1945 0 1 295 295
207	42248423 47544 1202383 1710432 39.467 55.388 2269 0 1 324 324
208	42295967 40763 1202383 1710432 39.467 55.388 1945 1 3 2269 2975
209	42336730 47635 1202604 1710667 39.476 55.397 2168 9 15 29634 409348
210	42384365 75601 1202604 1710667 39.476 55.397 2168 610.90243184676 788.69056667055 1586214.5092472 1166951107.4803
211	42459966 75513 1202604 1710667 39.476 55.397 2166 -4.1826399026876 41.44460380248 55083.76686207 1497818.6656722
212	42535479 49752 1202605 1710668 39.476 55.397 2168 26 870 1053390 697820796
213	42585231 52194 1202628 1710995 39.477 55.405 2375 8 15 31182 412856
214	42637425 82839 1202628 1710995 39.477 55.405 2375 668.6312683965 933.5852110033 1921173.6697287 1567760017.9758
215	42720264 82787 1202628 1710995 39.477 55.405 2375 2.7710911375505 40.486452652866 53742.770521298 1302696.5900284
216	42803051 54477 1202629 1710996 39.477 55.405 2375 6 870 1078812 578519826
217	42857528 10098 1208473 1710396 39.667 55.387 482 0 1 28 28
218	42867626 6182 1206741 1706052 39.613 55.256 295 0 1 29 29
219	42873808 6690 1204268 1709853 39.53 55.372 324 0 1 15 15
220	42880498 7230 1204899 1710049 39.552 55.378 345 0 1 34 34
221	42887728 7661 1204808 1709678 39.547 55.366 366 0 1 22 22
222	42895389 314 1256201 1690512 41.222 54.776 15 0 1 3 3
223	42895703 709 1288371 1704825 42.257 55.218 34 0 0 0 0
224	42896412 602 1298053 1667348 42.561 54.06 29 0 0 0 0
225	42897014 460 1325622 1686262 43.437 54.644 22 0 1 1 1
226	42897474 587 1224534 1710528 40.194 55.393 28 0 0 0 0
228	42898061 61 1508229 1534328 49.172 49.94 3 0 0 0 0
229	42898122 21 1582305 1582305 51.452 51.452 1 0 0 0 0
vector 230 SingleCell_Standalone.ue[1].cellularNic.nrMac harqErrorRate_4th_Dl:vector ETV
attr recordingmode vector
attr source harqErrorRate_4th_Dl
attr title "Harq Error Rate Dl (4th tx)"
attr unit ""
9	42898345 34470 1711227 1866369 55.4140039424 59.9990039424 1149 13602 14750 16288224 231028272574
12	42932815 5170 1711136 1865921 55.411 59.985 226 2712 2937 638337 1803944769
15	42937985 4169 1711158 1864667 55.412 59.949 182 2713 2894 510237 1430951795
18	42942154 5131 1711462 1865739 55.42 59.98 227 2717 2943 642410 1818995038
21	42947285 5239 1711047 1866337 55.407 59.999 228 2716 2943 645126 1826371694
24	42952524 5234 1711600 1865779 55.423 59.981 228 2715 2942 644898 1825081670
27	42957758 91344 1711055 1866386 55.408 60 4593 0 0 0 0
28	43049102 91344 1711055 1866386 55.408 60 4593 0 6 14677 70853
29	43140446 67976 1711234 1866386 55.415 60 3417 1 1 3417 3417
30	43208422 67976 1711236 1866388 55.415 60 3417 0 0 0 0
31	43276398 74360 1711236 1866388 55.415 60 3417 3 868 1187977 586078703
32	43350758 108830 1711233 1866390 55.4140039424 60 4566 3 1031 2372596 1807420892
33	43459588 14064 1711068 1866400 55.408 60 717 1 1 717 717
34	43473652 79730 1711040 1866330 55.407 59.999 3363 0.004 1.548 28.666000000001 4.07213
35	43553382 12750 1711068 1865772 55.408 59.981 591 10 868 237452 130174950
36	43566132 12750 1711071 1865775 55.408 59.981 591 10 868 237452 130174950
37	43578882 11586 1711071 1865775 55.408 59.981 589 0 0 0 0
38	43590468 13863 1711071 1865775 55.408 59.981 589 0.004 0.135 3.645 0.064469000000001
39	43604331 11630 1711596 1865775 55.423 59.981 591 0 1 2 2
40	43615961 92819 1711051 1866402 55.407 60 4257 5 870 1561920 780521704
41	43708780 160203 1711054 1866407 55.407 60 8083 1 1 8083 8083
42	43868983 10203 1711474 1866405 55.42 60 524 0 1 114 114
43	43879186 12676 1711474 1866405 55.42 60 648 0 1 124 124
44	43891862 10280 1711474 1866405 55.42 60 524 1 3 648 916
45	43902142 18976 1711080 1866408 55.408 60 918 8 14 11072 134372
46	43921118 30809 1711080 1866408 55.408 60 918 882.22218957994 914.50135749149 824129.47829302 739942552.72862
47	43951927 30816 1711080 1866408 55.408 60 918 -4.7780564129628 30.330054254631 17614.849912616 353866.78041555
48	43982743 19838 1711081 1866409 55.408 60 918 9 738 322366 138109192
49	44002581 12807 1711403 1866325 55.419 59.999 648 1 1 648 648
50	44015388 11372 1711403 1866325 55.419 59.999 524 33 868 236826 140517338
51	44026760 11372 1711406 1866328 55.419 59.999 524 33 868 236826 140517338
52	44038132 10309 1711406 1866328 55.419 59.999 522 0 0 0 0
53	44048441 12325 1711406 1866328 55.419 59.999 522 0.004 0.06 3.14 0.031462
54	44060766 7589 1711458 1865735 55.42 59.98 227 52121.82775957 52300.882028666 11858791.703002 619519793529.79
55	44068355 4489 1711458 1865735 55.42 59.98 229 0 1 2 2
56	44072844 4489 1711458 1865735 55.42 59.98 229 0 1 2 2
57	44077333 6947 1711458 1865735 55.42 59.98 227 0.0059960576 0.1259960576 3.0751050752 0.10042774988335
58	44084280 5131 1711458 1865735 55.42 59.98 227 1029 1029 233583 240356907
59	44089411 10370 1711406 1866328 55.419 59.999 524 0 1 2 2
60	44099781 5131 1711459 1865736 55.42 59.98 227 1029 1029 233583 240356907
61	44104912 5131 1711459 1865736 55.42 59.98 227 1028 1028 233356 239889968
62	44110043 5131 1711462 1865739 55.42 59.98 227 1008 1008 228816 230646528
63	44115174 5131 1711463 1865740 55.42 59.98 227 1000 1000 227000 227000000
64	44120305 1027 1714315 1863411 55.5 59.9 45 160000 560000 17840000 7238400000000
65	44121332 6947 1711463 1865740 55.42 59.98 227 0.0059996272 0.1259996272 3.0759153744 0.10044970656595
66	44128279 7706 1711596 1865775 55.423 59.981 228 52075.7921463 52279.747253958 11904403.482294 621556461520.76
67	44135985 4590 1711596 1865775 55.423 59.981 230 0 1 2 2
68	44140575 4590 1711596 1865775 55.423 59.981 230 0 1 2 2
69	44145165 7058 1711596 1865775 55.423 59.981 228 0.0059960576 0.1359960576 3.4541011328 0.13743176155969
70	44152223 5234 1711596 1865775 55.423 59.981 228 1029 1029 234612 241415748
71	44157457 5234 1711597 1865776 55.423 59.981 228 1029 1029 234612 241415748
72	44162691 5234 1711597 1865776 55.423 59.981 228 1028 1028 234384 240946752
73	44167925 5234 1711600 1865779 55.423 59.981 228 1008 1008 229824 231662592
74	44173159 5234 1711601 1865780 55.423 59.981 228 1000 1000 228000 228000000
75	44178393 1045 1711601 1863625 55.4 59.9 46 0 720000 18240000 7628800000000
76	44179438 7058 1711601 1865780 55.423 59.981 228 0.0059996272 0.1359996272 3.4549150016 0.13745642398369
77	44186496 11778 1711502 1865842 55.421 59.982 589 0 1 117 117
78	44198274 14308 1711100 1865842 55.409 59.982 716 0 1 125 125
79	44212582 11809 1711100 1865842 55.409 59.982 591 1 3 718 988
80	44224391 26937 1711101 1866114 55.409 59.994 1314 5 14 12957 134195
81	44251328 44474 1711101 1866114 55.409 59.994 1314 874.30178011851 950.58082162009 1204316.4119444 1104372576.3497
82	44295802 44504 1711101 1866114 55.409 59.994 1312 -10.122627994236 29.433439141737 16940.737607657 279146.64327015
83	44340306 28601 1711102 1866115 55.409 59.994 1314 5 846 338641 121645991
84	44368907 34470 1711205 1866347 55.4140003728 59.9990003728 1149 1000 1000 1149000 1149000000
85	44403377 34470 1711206 1866348 55.4140003728 59.9990003728 1149 1008 1008 1158192 1167457536
86	44437847 34470 1711208 1866350 55.4140003728 59.9990003728 1149 8224 8224 9449376 77711668224
87	44472317 1072 1714169 1863128 55.5 59.9 45 2056000 2056000 92520000 1.9022112e+14
88	44473389 31023 1711208 1866350 55.4140003728 59.9990003728 1149 0 0 0 0
89	44504412 34470 1711208 1866350 55.4140003728 59.9990003728 1149 8224 8224 9449376 77711668224
90	44538882 1072 1714169 1863128 55.5 59.9 45 2056000 2056000 92520000 1.9022112e+14
91	44539954 62046 1711208 1866351 55.4140003728 59.9990012008 2298 0 1 1149 1149
92	44602000 34470 1711208 1866350 55.4140003728 59.9990003728 1149 1035 1035 1189215 1230837525
93	44636470 31023 1711208 1866350 55.4140003728 59.9990003728 1149 0 0 0 0
94	44667493 31023 1711208 1866350 55.4140003728 59.9990003728 1149 0 0 0 0
95	44698516 34470 1711210 1866352 55.4140012508 59.9990012508 1149 1035 1035 1189215 1230837525
96	44732986 34470 1711210 1866352 55.4140012508 59.9990012508 1149 1028 1028 1181172 1214244816
97	44767456 34470 1711212 1866354 55.4140012508 59.9990012508 1149 8224 8224 9449376 77711668224
98	44801926 1072 1714173 1863132 55.5 59.9 45 2056000 2056000 92520000 1.9022112e+14
99	44802998 31023 1711212 1866354 55.4140012508 59.9990012508 1149 0 0 0 0
100	44834021 35619 1711212 1866354 55.4140012508 59.9990012508 1149 8224 8224 9449376 77711668224
101	44869640 1117 1714173 1863132 55.5 59.9 45 2056000 2056000 92520000 1.9022112e+14
102	44870757 64344 1711212 1866355 55.4140012508 59.9990020788 2298 0 1 1149 1149
103	44935101 35619 1711212 1866354 55.4140012508 59.9990012508 1149 1035 1035 1189215 1230837525
104	44970720 32172 1711212 1866354 55.4140012508 59.9990012508 1149 0 0 0 0
105	45002892 32172 1711212 1866354 55.4140012508 59.9990012508 1149 0 0 0 0
106	45035064 35619 1711214 1866356 55.4140021288 59.9990021288 1149 1035 1035 1189215 1230837525
107	45070683 35619 1711214 1866356 55.4140021288 59.9990021288 1149 1028 1028 1181172 1214244816
108	45106302 35619 1711217 1866359 55.4140021288 59.9990021288 1149 1044 1044 1199556 1252336464
109	45141921 35619 1711219 1866361 55.4140021288 59.9990021288 1149 8512 8512 9780288 83249811456
110	45177540 1117 1714180 1863139 55.5 59.9 45 2128000 2128000 95760000 2.0377728e+14
111	45178657 32172 1711219 1866361 55.4140021288 59.9990021288 1149 0 0 0 0
112	45210829 35619 1711219 1866361 55.4140021288 59.9990021288 1149 8512 8512 9780288 83249811456
113	45246448 1117 1714180 1863139 55.5 59.9 45 2128000 2128000 95760000 2.0377728e+14
114	45247565 64344 1711219 1866362 55.4140021288 59.9990029856 2298 0 1 1149 1149
115	45311909 35619 1711219 1866361 55.4140021288 59.9990021288 1149 1071 1071 1230579 1317950109
116	45347528 32172 1711219 1866361 55.4140021288 59.9990021288 1149 0 0 0 0
117	45379700 32172 1711219 1866361 55.4140021288 59.9990021288 1149 0 0 0 0
118	45411872 35619 1711221 1866363 55.4140030356 59.9990030356 1149 1071 1071 1230579 1317950109
119	45447491 35619 1711221 1866363 55.4140030356 59.9990030356 1149 1064 1064 1222536 1300778304
120	45483110 35619 1711223 1866365 55.4140030356 59.9990030356 1149 8512 8512 9780288 83249811456
121	45518729 1117 1714184 1863143 55.5 59.9 45 2128000 2128000 95760000 2.0377728e+14
122	45519846 32172 1711223 1866365 55.4140030356 59.9990030356 1149 0 0 0 0
123	45552018 35619 1711223 1866365 55.4140030356 59.9990030356 1149 8512 8512 9780288 83249811456
124	45587637 1117 1714184 1863143 55.5 59.9 45 2128000 2128000 95760000 2.0377728e+14
125	45588754 64344 1711223 1866366 55.4140030356 59.9990038924 2298 0 1 1149 1149
126	45653098 35619 1711223 1866365 55.4140030356 59.9990030356 1149 1071 1071 1230579 1317950109
127	45688717 32172 1711223 1866365 55.4140030356 59.9990030356 1149 0 0 0 0
128	45720889 32172 1711223 1866365 55.4140030356 59.9990030356 1149 0 0 0 0
129	45753061 35619 1711225 1866367 55.4140039424 59.9990039424 1149 1071 1071 1230579 1317950109
130	45788680 35619 1711225 1866367 55.4140039424 59.9990039424 1149 1064 1064 1222536 1300778304
131	45824299 35619 1711227 1866369 55.4140039424 59.9990039424 1149 1044 1044 1199556 1252336464
132	45859918 35619 1711230 1866372 55.4140039424 59.9990039424 1149 1028 1028 1181172 1214244816
133	45895537 35619 1711230 1866372 55.4140039424 59.9990039424 1149 1029 1029 1182321 1216608309
134	45931156 35619 1711231 1866373 55.4140039424 59.9990039424 1149 1029 1029 1182321 1216608309
135	45966775 19232 1711057 1865914 55.408 59.985 919 1 1 919 919
136	45986007 16352 1711057 1865914 55.408 59.985 717 7 736 237906 99350268
137	46002359 16352 1711060 1865917 55.408 59.985 717 7 736 237906 99350268
138	46018711 14916 1711060 1865917 55.408 59.985 713 0 0 0 0
139	46033627 17630 1711060 1865917 55.408 59.985 713 0.004 0.06 4.628 0.053948
140	46051257 15018 1711132 1865917 55.411 59.985 718 0 1 4 4
141	46066275 14421 1711608 1866234 55.423 59.996 657 10 15 8851 120151
142	46080696 22894 1711608 1866234 55.423 59.996 657 876.31745530184 952.35563379217 603707.42313777 555074947.54689
143	46103590 22864 1711608 1866234 55.423 59.996 656 4.7992488033099 41.695687472193 17465.458944506 504696.86136398
144	46126454 15045 1711609 1866235 55.423 59.996 657 26 870 289933 164695351
145	46141499 27450 1711151 1866244 55.412 59.997 1314 1 1 1314 1314
146	46168949 22109 1711151 1866244 55.412 59.997 976 3 844 228291 77886907
147	46191058 22131 1711036 1866247 55.407 59.997 977 3 844 228333 77888671
148	46213189 19977 1711036 1866247 55.407 59.997 956 0 0 0 0
149	46233166 23656 1711036 1866247 55.407 59.997 956 0.004 0.077 7.7669999999998 0.137579
150	46256822 21246 1711154 1864663 55.412 59.949 1017 0 1 75 75
151	46278068 26549 1711167 1866220 55.412 59.996 765 -3.2652132281202 12.725733919925 4797.1867507703 34289.822091608
152	46304617 26512 1711167 1866220 55.412 59.996 765 4.1276620119213 30.284076483863 14483.201920384 283073.13199221
153	46331129 26768 1711169 1866222 55.412 59.996 765 -9.2879815640404 7.4944899349519 1738.8304564666 7820.3260562842
154	46357897 26499 1711169 1866222 55.412 59.996 765 -0.75945929874699 27.143730582627 10072.910375883 160547.11052597
155	46384396 27007 1711171 1866224 55.412 59.996 765 -9.0802281708304 11.623565443269 1395.7196658467 14163.966874301
156	46411403 26507 1711171 1866224 55.412 59.996 765 15.364611669989 32.08147193501 18286.677028194 443632.64387839
157	46437910 26809 1711173 1866226 55.412 59.996 765 -7.8845674060922 13.514179442709 3024.1329207223 23990.369356401
158	46464719 26527 1711173 1866226 55.412 59.996 765 12.115728799037 39.775789292476 21670.463478773 653401.85818655
159	46491246 27050 1711175 1866228 55.412 59.996 765 -12.825046913049 7.7245478298646 18.33733316031 8283.2411156861
160	46518296 26532 1711175 1866228 55.412 59.996 765 3.3400610009065 31.574877813694 18044.878726383 447558.34738556
161	46544828 15018 1711075 1865954 55.408 59.986 717 0 1 192 192
162	46559846 19229 1711075 1865954 55.408 59.986 920 0 1 202 202
163	46579075 15000 1711075 1865954 55.408 59.986 718 1 3 921 1347
164	46594075 7846 1711132 1865917 55.411 59.985 226 52033.875591593 52217.348339281 11787000.490863 614749798065.91
165	46601921 4802 1711132 1865917 55.411 59.985 230 0 1 4 4
166	46606723 4802 1711132 1865917 55.411 59.985 230 0 1 4 4
167	46611525 7204 1711132 1865917 55.411 59.985 226 0.0059960576 0.0909960576 3.7921090176 0.11164309646621
168	46618729 5396 1711132 1865917 55.411 59.985 226 1029 1029 232554 239298066
169	46624125 5396 1711133 1865918 55.411 59.985 226 1029 1029 232554 239298066
170	46629521 5396 1711133 1865918 55.411 59.985 226 1028 1028 232328 238833184
171	46634917 5396 1711136 1865921 55.411 59.985 226 1008 1008 227808 229630464
172	46640313 5396 1711137 1865922 55.411 59.985 226 1000 1000 226000 226000000
173	46645709 1094 1711137 1864726 55.4 59.9 46 80000 640000 18000000 7532800000000
174	46646803 7204 1711137 1865922 55.411 59.985 226 0.0059996272 0.0909996272 3.7929157472 0.11167017197061
175	46654007 6333 1711154 1864663 55.412 59.949 182 51372.321837521 52238.777196365 9478517.5981607 493643971489.94
176	46660340 4670 1711154 1864663 55.412 59.949 224 0 1 42 42
177	46665010 4670 1711154 1864663 55.412 59.949 224 0 1 42 42
178	46669680 5807 1711154 1864663 55.412 59.949 182 0.0059960576 0.0909960576 5.4492824832 0.23670103066874
179	46675487 4351 1711154 1864663 55.412 59.949 182 1029 1029 187278 192709062
180	46679838 4351 1711155 1864664 55.412 59.949 182 1029 1029 187278 192709062
181	46684189 4351 1711155 1864664 55.412 59.949 182 1028 1028 187096 192334688
182	46688540 4351 1711158 1864667 55.412 59.949 182 1008 1008 183456 184923648
183	46692891 4351 1711159 1864668 55.412 59.949 182 1000 1000 182000 182000000
184	46697242 1078 1711159 1864668 55.4 59.9 46 0 560000 14880000 5772800000000
185	46698320 5807 1711159 1864668 55.412 59.949 182 0.0059996272 0.0909996272 5.4499321504 0.23673993650529
186	46704127 20394 1711077 1866043 55.408 59.99 978 0 1 308 308
187	46724521 27436 1711077 1866283 55.408 59.998 1315 0 1 338 338
188	46751957 20388 1711077 1866283 55.408 59.998 977 1 4 1314 2054
189	46772345 13804 1711040 1866330 55.407 59.999 658 1 1 658 658
190	46786149 12718 1711040 1866330 55.407 59.999 555 24 868 236914 134572464
191	46798867 12718 1711043 1866333 55.407 59.999 555 24 868 236914 134572464
192	46811585 11600 1711043 1866333 55.407 59.999 553 0 0 0 0
193	46823185 13760 1711043 1866333 55.407 59.999 553 0.004 0.068 2.98 0.025914
194	46836945 11642 1711043 1866333 55.407 59.999 555 0 1 2 2
195	46848587 7949 1711043 1866333 55.407 59.999 228 52117.422088997 52294.465785653 11912139.175407 622364632758.06
196	46856536 4825 1711043 1866333 55.407 59.999 230 0 1 2 2
197	46861361 4825 1711043 1866333 55.407 59.999 230 0 1 2 2
198	46866186 7291 1711043 1866333 55.407 59.999 228 0.0059960576 0.1059960576 2.7171011328 0.080724572657294
199	46873477 5467 1711043 1866333 55.407 59.999 228 1029 1029 234612 241415748
200	46878944 5467 1711044 1866334 55.407 59.999 228 1029 1029 234612 241415748
201	46884411 5467 1711044 1866334 55.407 59.999 228 1028 1028 234384 240946752
202	46889878 5467 1711047 1866337 55.407 59.999 228 1008 1008 229824 231662592
203	46895345 5467 1711048 1866338 55.407 59.999 228 1000 1000 228000 228000000
204	46900812 1090 1711048 1863868 55.4 59.9 46 0 720000 18240000 7667200000000
205	46901902 7291 1711048 1866338 55.407 59.999 228 0.0059996272 0.1059996272 2.7179150016 0.080743973490887
206	46909193 11653 1711054 1865996 55.407 59.988 556 0 1 89 89
207	46920846 13808 1711054 1866407 55.407 60 659 0 1 103 103
208	46934654 11651 1711054 1866407 55.407 60 556 1 3 659 893
209	46946305 14280 1711307 1866343 55.416 59.999 650 11 15 8775 118797
210	46960585 22615 1711307 1866343 55.416 59.999 650 788.73466654214 812.34211468879 520447.67601153 416747209.3752
211	46983200 22656 1711307 1866343 55.416 59.999 650 10.368223480741 33.20929351551 15268.171252992 367996.79072062
212	47005856 14907 1711308 1866344 55.416 59.999 650 35 870 308462 187519758
213	47020763 15727 1711333 1866345 55.417 59.999 717 6 15 9170 118698
214	47036490 24970 1711333 1866345 55.417 59.999 717 933.70173870383 1010.118684684 693403.68690151 670940660.76201
215	47061460 25005 1711333 1866345 55.417 59.999 717 1.1918265590577 34.424418208497 15868.326877586 374185.9786362
216	47086465 16408 1711334 1866346 55.417 59.999 717 12 870 302074 168354276
217	47102873 2489 1711100 1863692 55.409 59.919 119 0 1 8 8
218	47105362 1868 1719720 1866113 55.673 59.994 89 0 1 14 14
219	47107230 4001 1711178 1865443 55.412 59.971 193 0 1 10 10
220	47111231 6413 1711192 1866283 55.413 59.998 307 0 1 27 27
221	47117644 2387 1712355 1863966 55.446 59.926 114 0 1 10 10
222	47120031 210 1737197 1830120 56.198 58.957 10 0 0 0 0
223	47120241 566 1728897 1862673 55.946 59.888 27 0 1 3 3
224	47120807 287 1813400 1866407 58.479 60 14 0 0 0 0
225	47121094 210 1752009 1862768 56.634 59.892 10 0 0 0 0
226	47121304 168 1713621 1807569 55.484 58.316 8 0 0 0 0
230	47121472 63 1761300 1863300 56.906 59.906 3 0 0 0 0

